geometry optimzed in LAMMPS
_audit_creation_date              2020-11-30 
_audit_creation_method            'lammps2cif' 
_symmetry_space_group_name_H-M    'P1' 
_symmetry_Int_Tables_number       1 
_symmetry_cell_setting            triclinic 
loop_ 
_symmetry_equiv_pos_as_xyz 
  x,y,z 
_cell_length_a                    44.6802577 
_cell_length_b                    34.424495062311884 
_cell_length_c                    44.21553593242388 
_cell_angle_alpha                 89.47417870154068 
_cell_angle_beta                  89.55798421703011 
_cell_angle_gamma                 89.11866085906328 
loop_ 
_atom_site_label 
_atom_site_type_symbol 
_atom_site_fract_x 
_atom_site_fract_y 
_atom_site_fract_z 
_atom_site_charge 
Zn1        Zn  0.47796288  0.22451942  0.48304604     1.49700
Zn2        Zn  0.02234464  0.27408502  0.47153760     1.49400
Zn3        Zn  0.47948348  0.27446948  0.03738451     1.49100
Zn4        Zn  0.02896800  0.20888726  0.02467080     1.49500
O5          O  0.00450827  0.24624663  0.00171201    -1.82200
O6          O  0.48843430  0.23514828  0.43913409    -0.72900
O7          O  0.01320485  0.33053638  0.47886078    -0.72700
O8          O  0.43585010  0.26916205  0.02822206    -0.72200
O9          O  0.01092572  0.26094825  0.42917332    -0.72900
O10         O  0.43293450  0.23561781  0.48808655    -0.72500
O11         O  0.48801581  0.33124998  0.03179704    -0.73100
O12         O  0.02173355  0.21501815  0.06892816    -0.72500
O13         O  0.06689607  0.26856671  0.47472038    -0.73200
O14         O  0.48626916  0.26055579  0.08075420    -0.72600
O15         O  0.07329928  0.21619192  0.01811085    -0.73100
O16         O  0.01822780  0.15405748  0.01503669    -0.73000
O17         O  0.48705179  0.16743266  0.49220248    -0.72800
C18         C  0.99325585  0.23611336  0.41825256     0.79000
C19         C  0.00467786  0.35410348  0.00427355     0.79500
C20         C  0.42129565  0.25127759  0.00821253     0.78500
C21         C  0.00543838  0.23792959  0.08450655     0.78800
C22         C  0.08812045  0.24228719  0.00435247     0.80000
C23         C  0.99874182  0.13892408  0.99813428     0.79000
Zn24       Zn  0.46936084  0.21273601  0.28305739     1.49700
Zn25       Zn  0.01814594  0.21417214  0.22350225     1.49400
Zn26       Zn  0.46839828  0.28434400  0.23741662     1.49100
Zn27       Zn  0.02352430  0.28061266  0.27215555     1.49500
O28         O  0.49444620  0.24790169  0.25956885    -1.82200
O29         O  0.48031499  0.15671033  0.27614340    -0.72900
O30         O  0.00753516  0.22706570  0.18070789    -0.72700
O31         O  0.42451548  0.27305977  0.24405322    -0.72200
O32         O  0.01007827  0.15756061  0.23132160    -0.72900
O33         O  0.42580721  0.22025921  0.27334205    -0.72500
O34         O  0.47493942  0.27913970  0.19289902    -0.73100
O35         O  0.01431749  0.33720926  0.26483540    -0.72500
O36         O  0.06262264  0.22165389  0.22713346    -0.73200
O37         O  0.47754027  0.33977781  0.24775105    -0.72600
O38         O  0.06663813  0.26948721  0.26012081    -0.73100
O39         O  0.01989505  0.27229743  0.31666297    -0.73000
O40         O  0.47464224  0.22177893  0.32701172    -0.72800
C41         C  0.49802340  0.14000746  0.25756272     0.79000
C42         C  0.49010959  0.25506845  0.17724170     0.79500
C43         C  0.41132971  0.24555566  0.25797980     0.78500
C44         C  0.49697030  0.35529536  0.26457380     0.78800
C45         C  0.07850917  0.24482488  0.24217615     0.80000
C46         C  0.49305382  0.24146588  0.34205523     0.79000
Zn47       Zn  0.22155063  0.28585307  0.47163670     1.49700
Zn48       Zn  0.22931582  0.22980948  0.01708497     1.49400
Zn49       Zn  0.27473940  0.22205062  0.46269666     1.49100
Zn50       Zn  0.28345836  0.29133738  0.01327231     1.49500
O51         O  0.25492528  0.26085815  0.99020710    -1.82200
O52         O  0.17940085  0.26932300  0.48292953    -0.72900
O53         O  0.23606504  0.17217841  0.00982033    -0.72700
O54         O  0.26330066  0.23837651  0.42025678    -0.72200
O55         O  0.18512305  0.24073248  0.00955407    -0.72900
O56         O  0.22610040  0.28135731  0.42689186    -0.72500
O57         O  0.26617809  0.16483109  0.46886584    -0.73100
O58         O  0.32626211  0.27399384  0.00459007    -0.72500
O59         O  0.23800267  0.24255609  0.06084276    -0.73200
O60         O  0.31965201  0.22764891  0.46789209    -0.72600
O61         O  0.27577194  0.28392482  0.05767876    -0.73100
O62         O  0.27834935  0.34933001  0.00532914    -0.73000
O63         O  0.22689982  0.34273874  0.48016144    -0.73200
C64         C  0.17147181  0.26527740  0.99263889     0.79000
C65         C  0.25043416  0.15320601  0.98958365     0.79500
C66         C  0.24357938  0.26198925  0.40974818     0.78500
C67         C  0.33793205  0.24914409  0.98660411     0.78800
C68         C  0.25705577  0.26451378  0.07321821     0.80000
C69         C  0.25869634  0.36867227  0.99053543     0.79000
Zn70       Zn  0.27321967  0.22253453  0.26316883     1.49700
Zn71       Zn  0.22397446  0.29030951  0.27006634     1.49400
Zn72       Zn  0.26887398  0.28906279  0.21318789     1.49100
Zn73       Zn  0.21725052  0.22545322  0.21906185     1.49500
O74         O  0.24564263  0.25699403  0.24134178    -1.82200
O75         O  0.26841176  0.22830136  0.30754876    -0.72900
O76         O  0.23238083  0.34705502  0.26164437    -0.72700
O77         O  0.31340794  0.28204317  0.21968652    -0.72200
O78         O  0.23558467  0.27690264  0.31318827    -0.72900
O79         O  0.31603381  0.23498183  0.25425503    -0.72500
O80         O  0.26028668  0.34599795  0.21979558    -0.73100
O81         O  0.22211182  0.23366819  0.17417108    -0.72500
O82         O  0.17927187  0.28325011  0.26655380    -0.73200
O83         O  0.25934514  0.27562563  0.16998414    -0.72600
O84         O  0.17450475  0.23850357  0.23101655    -0.73100
O85         O  0.22474858  0.16822912  0.22658035    -0.73000
O86         O  0.26587321  0.16651607  0.25465378    -0.72800
C87         C  0.25321836  0.25107129  0.32424811     0.79000
C88         C  0.24642798  0.36463229  0.24049559     0.79500
C89         C  0.32859700  0.25974129  0.23702071     0.78500
C90         C  0.24011392  0.25353288  0.15810176     0.78800
C91         C  0.16303597  0.26190734  0.25022378     0.80000
C92         C  0.24524522  0.14946000  0.24054218     0.79000
N93         N  0.99807868  0.45540269  0.03475184    -0.34700
N94         N  0.99613548  0.03939220  0.03284971    -0.55300
N95         N  0.99818301  0.03344481  0.46859271    -0.34700
N96         N  0.00117770  0.44975004  0.46793883    -0.55300
C97         C  0.00458629  0.46379593  0.06384581     0.28900
C98         C  0.00661955  0.41805169  0.03002247     0.28900
C99         C  0.00589343  0.07053866  0.47418212     0.28900
C100        C  0.00332032  0.02695811  0.43877842     0.28900
C101        C  0.99118740  0.03421925  0.06288234     0.37500
C102        C  0.99110043  0.07753262  0.02688386     0.37500
C103        C  0.99485875  0.41195101  0.47317097     0.37500
C104        C  0.99478610  0.45711018  0.43849491     0.37500
C105        C  0.01739998  0.43139458  0.07768192    -0.20000
C106        C  0.01862618  0.40250020  0.05639408    -0.20000
C107        C  0.01592162  0.08788201  0.44761636    -0.20000
C108        C  0.01439701  0.06034864  0.42535455    -0.20000
C109        C  0.98300131  0.06920877  0.07600342    -0.21100
C110        C  0.98295035  0.09662728  0.05326023    -0.21100
C111        C  0.98430516  0.39534383  0.44691293    -0.21100
C112        C  0.98445107  0.42385124  0.42500084    -0.21100
C113        C  0.99772520  0.49920325  0.07855355    -0.16400
C114        C  0.00252313  0.39710130  0.00300929    -0.16400
C115        C  0.99997012  0.49275657  0.42327351    -0.16400
C116        C  0.99600185  0.09599367  0.99853166    -0.16400
H117        H  0.02540377  0.42893659  0.10059885     0.16500
H118        H  0.02747972  0.37338438  0.05993450     0.16500
H119        H  0.02353907  0.11736982  0.44456220     0.16500
H120        H  0.02083453  0.06447466  0.40200680     0.16500
H121        H  0.97814167  0.07461916  0.09956379     0.14800
H122        H  0.97783726  0.12724460  0.05594809     0.14800
H123        H  0.97717672  0.36578106  0.44372060     0.14800
H124        H  0.97760071  0.42045347  0.40185672     0.14800
H125        H  0.98547854  0.47259524  0.02000399     0.28000
H126        H  0.98685086  0.01523759  0.48347219     0.28000
N127        N  0.99724033  0.45454213  0.28383632    -0.34700
N128        N  0.99346092  0.03872951  0.28466179    -0.55300
N129        N  0.99649395  0.03977715  0.21801017    -0.34700
N130        N  0.99445584  0.45587933  0.21717640    -0.55300
C131        C  0.99219767  0.46089507  0.31370006     0.28900
C132        C  0.98984490  0.41737331  0.27821374     0.28900
C133        C  0.99005245  0.07754436  0.22386403     0.28900
C134        C  0.99030001  0.03365747  0.18843676     0.28900
C135        C  0.99826316  0.03196797  0.31450041     0.37500
C136        C  0.99859821  0.07690564  0.27973421     0.37500
C137        C  0.99735880  0.41717477  0.22202605     0.37500
C138        C  0.99919087  0.46186579  0.18719788     0.37500
C139        C  0.98156134  0.42725619  0.32712972    -0.20000
C140        C  0.98009436  0.39979856  0.30480157    -0.20000
C141        C  0.97967761  0.09558024  0.19766609    -0.20000
C142        C  0.97997325  0.06798178  0.17537168    -0.20000
C143        C  0.00604475  0.06603064  0.32857130    -0.21100
C144        C  0.00657198  0.09436501  0.30661192    -0.21100
C145        C  0.00354914  0.39851056  0.19495999    -0.21100
C146        C  0.00455975  0.42678346  0.17294747    -0.21100
C147        C  0.99862893  0.49548613  0.32934189    -0.16400
C148        C  0.99341803  0.39809280  0.25023788    -0.16400
C149        C  0.99691527  0.49829908  0.17232061    -0.16400
C150        C  0.99467629  0.09669997  0.25173281    -0.16400
H151        H  0.97554552  0.42283442  0.35056077     0.16500
H152        H  0.97283037  0.37015460  0.30786089     0.16500
H153        H  0.97247961  0.12553870  0.19481863     0.16500
H154        H  0.97304547  0.07262168  0.15225592     0.16500
H155        H  0.01101692  0.07010297  0.35213357     0.14800
H156        H  0.01231841  0.12436765  0.31022506     0.14800
H157        H  0.00688926  0.36769074  0.19133654     0.14800
H158        H  0.00852581  0.42192704  0.14917934     0.14800
H159        H  0.00836748  0.47281512  0.26887593     0.28000
H160        H  0.00760098  0.02061832  0.23251765     0.28000
N161        N  0.24641431  0.46198655  0.45734374    -0.34700
N162        N  0.25087478  0.04592471  0.45665615    -0.55300
N163        N  0.24728551  0.05224105  0.02320308    -0.34700
N164        N  0.25518336  0.46855302  0.02417792    -0.55300
C165        C  0.25216298  0.46862133  0.42762222     0.28900
C166        C  0.25174407  0.42377976  0.46285052     0.28900
C167        C  0.25375642  0.08991744  0.01743458     0.28900
C168        C  0.25343863  0.04515457  0.05277436     0.28900
C169        C  0.24378616  0.04037090  0.42729076     0.37500
C170        C  0.24680549  0.08430956  0.46201367     0.37500
C171        C  0.25344911  0.42993893  0.01934323     0.37500
C172        C  0.24966074  0.47382278  0.05401260     0.37500
C173        C  0.26079490  0.43408109  0.41401227    -0.20000
C174        C  0.26062693  0.40581674  0.43621718    -0.20000
C175        C  0.26411506  0.10682928  0.04367969    -0.20000
C176        C  0.26368751  0.07870171  0.06593241    -0.20000
C177        C  0.23528513  0.07531607  0.41401375    -0.21100
C178        C  0.23700679  0.10309071  0.43594146    -0.21100
C179        C  0.24714655  0.41061914  0.04624705    -0.21100
C180        C  0.24484293  0.43840985  0.06816623    -0.21100
C181        C  0.24808412  0.50455887  0.41229985    -0.16400
C182        C  0.25838364  0.41162920  0.99122570    -0.16400
C183        C  0.25122754  0.50978003  0.06895128    -0.16400
C184        C  0.24926558  0.10996820  0.98958513    -0.16400
H185        H  0.26650280  0.42958831  0.39053239     0.16500
H186        H  0.26613506  0.37539379  0.43300334     0.16500
H187        H  0.27144500  0.13635716  0.04660912     0.16500
H188        H  0.27069461  0.08239833  0.08901346     0.16500
H189        H  0.22815530  0.08027375  0.39107973     0.14800
H190        H  0.23133696  0.13352492  0.43289782     0.14800
H191        H  0.24456859  0.37970509  0.04982787     0.14800
H192        H  0.24055737  0.43299696  0.09183792     0.14800
H193        H  0.23643161  0.48149965  0.47222995     0.28000
H194        H  0.23636641  0.03369985  0.00866298     0.28000
N195        N  0.24449526  0.04976048  0.20712586    -0.34700
N196        N  0.24681211  0.04886456  0.27342693    -0.55300
N197        N  0.24642011  0.46490198  0.27352836    -0.34700
N198        N  0.24882785  0.46564939  0.20719707    -0.55300
C199        C  0.24984507  0.08757985  0.21264475     0.28900
C200        C  0.25066129  0.04357834  0.17748698     0.28900
C201        C  0.25340553  0.47121833  0.30285564     0.28900
C202        C  0.25278661  0.42713020  0.26767399     0.28900
C203        C  0.24139531  0.08712595  0.26852317     0.37500
C204        C  0.24208351  0.04240076  0.30331411     0.37500
C205        C  0.24308352  0.47282214  0.17760587     0.37500
C206        C  0.24249822  0.42782894  0.21233336     0.37500
C207        C  0.25923226  0.10576018  0.18617953    -0.20000
C208        C  0.25972926  0.07799551  0.16402928    -0.20000
C209        C  0.26434782  0.43708483  0.31572685    -0.20000
C210        C  0.26407684  0.40931691  0.29356368    -0.20000
C211        C  0.23347024  0.10508467  0.29541355    -0.21100
C212        C  0.23387539  0.07672822  0.31738725    -0.21100
C213        C  0.23318155  0.43945166  0.16393150    -0.21100
C214        C  0.23270481  0.41099711  0.18586927    -0.21100
C215        C  0.24512969  0.10660325  0.24051205    -0.16400
C216        C  0.24647951  0.00833598  0.16200793    -0.16400
C217        C  0.24697113  0.40785275  0.24016228    -0.16400
C218        C  0.24726526  0.00654102  0.31827900    -0.16400
H219        H  0.26500860  0.13596680  0.18307421     0.16500
H220        H  0.26591762  0.08274789  0.14067246     0.16500
H221        H  0.27190732  0.43264138  0.33864392     0.16500
H222        H  0.27138621  0.37938601  0.29631737     0.16500
H223        H  0.22806044  0.13548303  0.29889330     0.14800
H224        H  0.22885194  0.08102597  0.34097828     0.14800
H225        H  0.22638552  0.43612534  0.14076212     0.14800
H226        H  0.22564585  0.38141230  0.18263243     0.14800
H227        H  0.23414081  0.03051409  0.22193554     0.28000
H228        H  0.23469338  0.48386940  0.25936826     0.28000
C229        C  0.24708265  0.00560740  0.35134810    -0.11400
C230        C  0.24818140  0.50496292  0.37921629    -0.12900
C231        C  0.25025856  0.50986121  0.10200331    -0.11400
C232        C  0.24720304  0.00893574  0.12892967    -0.12900
C233        C  0.99934058  0.49369439  0.39008162    -0.11400
C234        C  0.99900822  0.49453760  0.36254183    -0.12900
C235        C  0.99756398  0.49972855  0.11167666    -0.11400
C236        C  0.99719050  0.49938867  0.13918040    -0.12900
C237        C  0.25658371  0.24656857  0.35712389    -0.14500
C238        C  0.24047081  0.26754153  0.37690438    -0.29700
H239        H  0.27253028  0.22477336  0.36523451     0.14500
H240        H  0.22425517  0.28903055  0.36885824     0.15100
C241        C  0.25788369  0.26826011  0.10638697    -0.14500
C242        C  0.23858359  0.25009572  0.12491461    -0.29700
H243        H  0.27495992  0.28667326  0.11579075     0.14500
H244        H  0.22151472  0.23162516  0.11557813     0.15100
C245        C  0.37853300  0.24212893  0.25653996    -0.14500
C246        C  0.36146918  0.26346330  0.23753391    -0.29700
H247        H  0.36820138  0.22071177  0.27132819     0.14500
H248        H  0.37173145  0.28459617  0.22245413     0.15100
C249        C  0.11137482  0.24250178  0.23833239    -0.14500
C250        C  0.13016369  0.26472496  0.25400064    -0.29700
H251        H  0.12032971  0.22160925  0.22222049     0.14500
H252        H  0.12125189  0.28544230  0.27026812     0.15100
C253        C  0.38853097  0.25771544  0.00737019    -0.14500
C254        C  0.37073315  0.24218499  0.98644979    -0.29700
H255        H  0.37876635  0.27636945  0.02464018     0.14500
H256        H  0.37844223  0.22436270  0.46824306     0.15100
C257        C  0.12115613  0.24086662  0.00622315    -0.14500
C258        C  0.13843562  0.26677863  0.99171978    -0.29700
H259        H  0.12406590  0.27453105  0.46982082     0.14500
H260        H  0.12806263  0.28956136  0.97802062     0.15100
C261        C  0.99015844  0.23275229  0.38537673    -0.14500
C262        C  0.00651926  0.25405152  0.36610907    -0.29700
H263        H  0.97412221  0.21216974  0.37687802     0.14500
H264        H  0.47514451  0.21909525  0.38516755     0.15100
C265        C  0.98794875  0.25467541  0.13553433    -0.14500
C266        C  0.00609237  0.23372963  0.11751060    -0.29700
H267        H  0.47466837  0.28068432  0.13426699     0.14500
H268        H  0.02189482  0.21282940  0.12716001     0.15100
Zn269      Zn  0.47824439  0.21321903  0.98360557     1.49700
Zn270      Zn  0.03166243  0.27987021  0.97895307     1.49400
Zn271      Zn  0.47491145  0.28929328  0.53403403     1.49100
Zn272      Zn  0.03191587  0.20772805  0.52148904     1.49500
O273        O  0.00203197  0.24052358  0.50064396    -1.82200
O274        O  0.48924681  0.22641902  0.94042902    -0.72900
O275        O  0.02225359  0.33647050  0.98603278    -0.72700
O276        O  0.43206408  0.28074694  0.52369989    -0.72200
O277        O  0.02724031  0.27095691  0.93465272    -0.72900
O278        O  0.43440451  0.22889732  0.98928595    -0.72500
O279        O  0.48180160  0.34635164  0.52915580    -0.73100
O280        O  0.02763059  0.21404923  0.56646838    -0.72500
O281        O  0.07507032  0.26923601  0.98925643    -0.73200
O282        O  0.48031478  0.27722688  0.57753143    -0.72600
O283        O  0.07450953  0.22259691  0.50956504    -0.73100
O284        O  0.02468198  0.15055105  0.51374047    -0.73000
O285        O  0.48253990  0.15463486  0.99058797    -0.72800
C286        C  0.00960969  0.25083287  0.91898472     0.79000
C287        C  0.00044122  0.34841554  0.50058952     0.79500
C288        C  0.41858969  0.25922336  0.50518947     0.78500
C289        C  0.01009892  0.23416592  0.58310200     0.78800
C290        C  0.08444647  0.24774449  0.49075734     0.80000
C291        C  0.00295860  0.13290038  0.50168987     0.79000
Zn292      Zn  0.47227541  0.21063731  0.78353866     1.49700
Zn293      Zn  0.02368840  0.20531185  0.72295809     1.49400
Zn294      Zn  0.47572807  0.27550185  0.73153524     1.49100
Zn295      Zn  0.02631567  0.26734575  0.77703059     1.49500
O296        O  0.49920577  0.24426442  0.76060773    -1.82200
O297        O  0.48228844  0.15426976  0.77733763    -0.72900
O298        O  0.01385438  0.21929835  0.67981040    -0.72700
O299        O  0.43106914  0.26391846  0.73448844    -0.72200
O300        O  0.01731172  0.14773576  0.72947944    -0.72900
O301        O  0.42961745  0.21924072  0.77107385    -0.72500
O302        O  0.48979944  0.26338112  0.68894883    -0.73100
O303        O  0.01890119  0.32537856  0.77035790    -0.72500
O304        O  0.06751252  0.21470490  0.72844409    -0.73200
O305        O  0.48085809  0.33321307  0.73916443    -0.72600
O306        O  0.07026231  0.25612547  0.76663825    -0.73100
O307        O  0.01805410  0.25482781  0.82145553    -0.73000
O308        O  0.47524330  0.21947670  0.82809805    -0.72800
C309        C  0.50287062  0.13660888  0.76269228     0.79000
C310        C  0.50978555  0.24066052  0.67781208     0.79500
C311        C  0.41650446  0.24074840  0.75157703     0.78500
C312        C  0.49448941  0.35193629  0.75953473     0.78800
C313        C  0.08276091  0.23509084  0.74635887     0.80000
C314        C  0.49168495  0.24102401  0.84391850     0.79000
Zn315      Zn  0.22930082  0.29666373  0.96731981     1.49700
Zn316      Zn  0.23235165  0.21972911  0.52080120     1.49400
Zn317      Zn  0.27714945  0.22646414  0.96256645     1.49100
Zn318      Zn  0.27985643  0.28772460  0.51233796     1.49500
O319        O  0.25215745  0.25377977  0.49172834    -1.82200
O320        O  0.18569260  0.28894254  0.97590082    -0.72900
O321        O  0.24212164  0.16349054  0.51301007    -0.72700
O322        O  0.26805934  0.24046771  0.91925629    -0.72200
O323        O  0.18769964  0.22341765  0.51755941    -0.72900
O324        O  0.23484651  0.28898898  0.92323074    -0.72500
O325        O  0.26616773  0.17041226  0.96955603    -0.73100
O326        O  0.32290776  0.27334915  0.50281308    -0.72500
O327        O  0.24251923  0.23463594  0.56320161    -0.73200
O328        O  0.32191313  0.22950206  0.96882685    -0.72600
O329        O  0.27457615  0.28294880  0.55713511    -0.73100
O330        O  0.27138994  0.34415798  0.50249634    -0.73000
O331        O  0.23852939  0.35207641  0.97549108    -0.73200
C332        C  0.16983468  0.24375586  0.50154037     0.79000
C333        C  0.25402447  0.14601413  0.49056598     0.79500
C334        C  0.25065745  0.26589051  0.90736637     0.78500
C335        C  0.33522357  0.24878824  0.48504221     0.78800
C336        C  0.25905115  0.26087579  0.57400361     0.80000
C337        C  0.24862232  0.36136621  0.49112500     0.79000
Zn338      Zn  0.27851299  0.22070107  0.76112117     1.49700
Zn339      Zn  0.22764114  0.28725509  0.77002828     1.49400
Zn340      Zn  0.27228498  0.28908767  0.71312878     1.49100
Zn341      Zn  0.22107196  0.22387301  0.71915901     1.49500
O342        O  0.24987301  0.25539339  0.74082664    -1.82200
O343        O  0.27537491  0.22683249  0.80591565    -0.72900
O344        O  0.23337525  0.34450058  0.76225176    -0.72700
O345        O  0.31743013  0.28236462  0.71758087    -0.72200
O346        O  0.24158121  0.27436941  0.81178944    -0.72900
O347        O  0.32105017  0.23288322  0.74989751    -0.72500
O348        O  0.26238898  0.34568119  0.72118144    -0.73100
O349        O  0.22483934  0.23332707  0.67481339    -0.72500
O350        O  0.18311284  0.27757288  0.76916075    -0.73200
O351        O  0.26175506  0.27584167  0.67020844    -0.72600
O352        O  0.17837625  0.23417640  0.73276242    -0.73100
O353        O  0.22933955  0.16686615  0.72477288    -0.73000
O354        O  0.27074656  0.16452618  0.75233969    -0.72800
C355        C  0.26008474  0.24953915  0.82266805     0.79000
C356        C  0.24731023  0.36319623  0.74168828     0.79500
C357        C  0.33320508  0.25845158  0.73305151     0.78500
C358        C  0.24255218  0.25340986  0.65865061     0.78800
C359        C  0.16692084  0.25589416  0.75311589     0.80000
C360        C  0.24997491  0.14779130  0.73814529     0.79000
N361        N  0.00115421  0.44837134  0.53442256    -0.34700
N362        N  0.00118841  0.03183731  0.53484771    -0.55300
N363        N  0.99470932  0.03758450  0.96655918    -0.34700
N364        N  0.99981791  0.45331220  0.96852654    -0.55300
C365        C  0.00883343  0.45417387  0.56362434     0.28900
C366        C  0.00689238  0.41053731  0.52823447     0.28900
C367        C  0.00053550  0.07557411  0.97115122     0.28900
C368        C  0.00177433  0.02968161  0.93734656     0.28900
C369        C  0.99705269  0.02554496  0.56486562     0.37500
C370        C  0.99859980  0.07064973  0.53028332     0.37500
C371        C  0.99661467  0.41505409  0.97470379     0.37500
C372        C  0.99431444  0.45805355  0.93863885     0.37500
C373        C  0.01947791  0.41969027  0.57614328    -0.20000
C374        C  0.01849533  0.39224283  0.55381559    -0.20000
C375        C  0.01100960  0.09209948  0.94445541    -0.20000
C376        C  0.01172046  0.06319212  0.92318568    -0.20000
C377        C  0.99220773  0.06055942  0.57940972    -0.21100
C378        C  0.99311608  0.08911047  0.55754800    -0.21100
C379        C  0.98894981  0.39551014  0.94864422    -0.21100
C380        C  0.98764501  0.42272002  0.92583651    -0.21100
C381        C  0.00496246  0.48923296  0.57966137    -0.16400
C382        C  0.00038314  0.39165226  0.50070953    -0.16400
C383        C  0.99785072  0.49319900  0.92238976    -0.16400
C384        C  0.00261145  0.08990372  0.50215594    -0.16400
H385        H  0.02742219  0.41486245  0.59890859     0.16500
H386        H  0.02562414  0.36221406  0.55629937     0.16500
H387        H  0.01766689  0.12185625  0.94066134     0.16500
H388        H  0.01904821  0.06648738  0.90004201     0.16500
H389        H  0.98901871  0.06522572  0.60330655     0.14800
H390        H  0.99044803  0.11998085  0.56139705     0.14800
H391        H  0.98498567  0.36477741  0.94614750     0.14800
H392        H  0.98266765  0.41700691  0.90248542     0.14800
H393        H  0.98949950  0.46786608  0.52062366     0.28000
H394        H  0.98392454  0.01912591  0.98168523     0.28000
N395        N  0.00330392  0.44592826  0.78493050    -0.34700
N396        N  0.00294558  0.02951800  0.78351981    -0.55300
N397        N  0.00357035  0.02826231  0.71718405    -0.34700
N398        N  0.00212256  0.44467891  0.71876792    -0.55300
C399        C  0.99637146  0.45370605  0.81418618     0.28900
C400        C  0.99711191  0.40811296  0.78014888     0.28900
C401        C  0.99700807  0.06608441  0.72244557     0.28900
C402        C  0.99562924  0.02093705  0.68830676     0.28900
C403        C  0.00841703  0.02397135  0.81333500     0.37500
C404        C  0.00847043  0.06729936  0.77747222     0.37500
C405        C  0.00672523  0.40636988  0.72445643     0.37500
C406        C  0.00735831  0.45020905  0.68881936     0.37500
C407        C  0.98582357  0.42036020  0.82813601    -0.20000
C408        C  0.98631946  0.39159094  0.80672191    -0.20000
C409        C  0.98476891  0.08298214  0.69666525    -0.20000
C410        C  0.98388707  0.05445681  0.67515725    -0.20000
C411        C  0.01743854  0.05830626  0.82620335    -0.21100
C412        C  0.01760137  0.08572595  0.80352332    -0.21100
C413        C  0.01476804  0.38750852  0.69794179    -0.21100
C414        C  0.01511457  0.41525217  0.67541279    -0.21100
C415        C  0.00107727  0.48942052  0.82892667    -0.16400
C416        C  0.00200327  0.38774864  0.75280759    -0.16400
C417        C  0.00291108  0.48580747  0.67315186    -0.16400
C418        C  0.00300696  0.08612560  0.74943356    -0.16400
H419        H  0.97842409  0.41705542  0.85127992     0.16500
H420        H  0.97943176  0.36189179  0.81034415     0.16500
H421        H  0.97710580  0.11273525  0.69365535     0.16500
H422        H  0.97516676  0.05788877  0.65258362     0.16500
H423        H  0.02330684  0.06314433  0.84944802     0.14800
H424        H  0.02351798  0.11588125  0.80606791     0.14800
H425        H  0.01966724  0.35687816  0.69502446     0.14800
H426        H  0.02010915  0.41013700  0.65182842     0.14800
H427        H  0.01459271  0.46412953  0.77000187     0.28000
H428        H  0.01583428  0.00987613  0.73136596     0.28000
N429        N  0.25228449  0.46902290  0.95784262    -0.34700
N430        N  0.25066707  0.05277052  0.95656921    -0.55300
N431        N  0.24915601  0.04509625  0.52294361    -0.34700
N432        N  0.24680124  0.46130068  0.52359890    -0.55300
C433        C  0.25676899  0.47614553  0.92794382     0.28900
C434        C  0.26104125  0.43182186  0.96331808     0.28900
C435        C  0.25812823  0.08180144  0.51704563     0.28900
C436        C  0.25575994  0.03707077  0.55224130     0.28900
C437        C  0.24539062  0.04663911  0.92683421     0.37500
C438        C  0.24485066  0.09086440  0.96167910     0.37500
C439        C  0.24221000  0.42320782  0.51862297     0.37500
C440        C  0.24112848  0.46727506  0.55330970     0.37500
C441        C  0.26839004  0.44303124  0.91436432    -0.20000
C442        C  0.27107838  0.41509302  0.93661963    -0.20000
C443        C  0.27078146  0.09706369  0.54284714    -0.20000
C444        C  0.26911947  0.06893051  0.56503641    -0.20000
C445        C  0.23627580  0.08102742  0.91305202    -0.21100
C446        C  0.23587852  0.10898823  0.93503246    -0.21100
C447        C  0.23374786  0.40482987  0.54530728    -0.21100
C448        C  0.23291560  0.43281343  0.56722423    -0.21100
C449        C  0.24921242  0.51101435  0.91237254    -0.16400
C450        C  0.24730869  0.40424751  0.49081601    -0.16400
C451        C  0.24630706  0.50247930  0.56838716    -0.16400
C452        C  0.25319580  0.10276155  0.48971905    -0.16400
H453        H  0.27444916  0.43935549  0.89089680     0.16500
H454        H  0.27936448  0.38568644  0.93345237     0.16500
H455        H  0.28026931  0.12554806  0.54552047     0.16500
H456        H  0.27722889  0.07148119  0.58785157     0.16500
H457        H  0.23047425  0.08558557  0.88966829     0.14800
H458        H  0.22960809  0.13920088  0.93168625     0.14800
H459        H  0.22895049  0.37436347  0.54870030     0.14800
H460        H  0.22757639  0.42806585  0.59077298     0.14800
H461        H  0.24068749  0.48684252  0.97286242     0.28000
H462        H  0.23605358  0.02835808  0.50892182     0.28000
N463        N  0.24592505  0.04750901  0.70592499    -0.34700
N464        N  0.24840157  0.04818184  0.77228060    -0.55300
N465        N  0.24379394  0.46432492  0.77417254    -0.34700
N466        N  0.24508333  0.46339748  0.70750964    -0.55300
C467        C  0.25273964  0.08506566  0.71079756     0.28900
C468        C  0.25150067  0.04012334  0.67634227     0.28900
C469        C  0.25045582  0.47158056  0.80349306     0.28900
C470        C  0.25055016  0.42646487  0.76889257     0.28900
C471        C  0.24406225  0.08647341  0.76663483     0.37500
C472        C  0.24332019  0.04292820  0.80224449     0.37500
C473        C  0.23896808  0.46920129  0.67782955     0.37500
C474        C  0.24007968  0.42543073  0.71341843     0.37500
C475        C  0.26240095  0.10197088  0.68393095    -0.20000
C476        C  0.26158702  0.07361981  0.66220910    -0.20000
C477        C  0.26124626  0.43781048  0.81701907    -0.20000
C478        C  0.26149319  0.40946588  0.79525144    -0.20000
C479        C  0.23623767  0.10558358  0.79308316    -0.21100
C480        C  0.23578340  0.07798125  0.81558657    -0.21100
C481        C  0.23009409  0.43484550  0.66489922    -0.21100
C482        C  0.23063677  0.40717923  0.68738893    -0.21100
C483        C  0.24894523  0.10498941  0.73844034    -0.16400
C484        C  0.24607570  0.00460777  0.66160155    -0.16400
C485        C  0.24574035  0.40641886  0.74140312    -0.16400
C486        C  0.24800785  0.00755922  0.81800149    -0.16400
H487        H  0.26915147  0.13172457  0.68028527     0.16500
H488        H  0.26753898  0.07741382  0.63868561     0.16500
H489        H  0.26843096  0.43395277  0.84009267     0.16500
H490        H  0.26896616  0.37970123  0.79859313     0.16500
H491        H  0.23159627  0.13629085  0.79596161     0.14800
H492        H  0.23075409  0.08324915  0.83907237     0.14800
H493        H  0.22365112  0.43021675  0.64177508     0.14800
H494        H  0.22466140  0.37706379  0.68475736     0.14800
H495        H  0.23506515  0.02933358  0.72118333     0.28000
H496        H  0.23234389  0.48288254  0.75949345     0.28000
C497        C  0.24915049  0.00846203  0.85111540    -0.11400
C498        C  0.24791619  0.51011621  0.87921367    -0.12900
C499        C  0.24505306  0.50296730  0.60140377    -0.11400
C500        C  0.24700729  0.00377228  0.62854080    -0.12900
C501        C  0.99896093  0.49185900  0.88936759    -0.11400
C502        C  0.99990174  0.49043827  0.86195372    -0.12900
C503        C  0.00465022  0.48754502  0.61269179    -0.11400
C504        C  0.00385374  0.48621543  0.64012057    -0.12900
C505        C  0.26390771  0.24648644  0.85553513    -0.14500
C506        C  0.24806376  0.26911763  0.87443585    -0.29700
H507        H  0.27970550  0.22495926  0.86431820     0.14500
H508        H  0.23229189  0.29062227  0.86554711     0.15100
C509        C  0.26029364  0.26648696  0.60684148    -0.14500
C510        C  0.24093113  0.24919484  0.62571284    -0.29700
H511        H  0.27717540  0.28571344  0.61558787     0.14500
H512        H  0.22384750  0.23034831  0.61684400     0.15100
C513        C  0.38360467  0.23807739  0.74967557    -0.14500
C514        C  0.36630822  0.26098550  0.73195824    -0.29700
H515        H  0.37311396  0.21678083  0.76445427     0.14500
H516        H  0.37645856  0.28274520  0.71736176     0.15100
C517        C  0.11566177  0.23401329  0.74259540    -0.14500
C518        C  0.13416053  0.25640299  0.75843143    -0.29700
H519        H  0.12487107  0.21468212  0.72547139     0.14500
H520        H  0.12508031  0.27592190  0.77548045     0.15100
C521        C  0.38558963  0.26284277  0.50422330    -0.14500
C522        C  0.36828473  0.24406643  0.48454780    -0.29700
H523        H  0.37514223  0.28236071  0.52050318     0.14500
H524        H  0.38027828  0.22319574  0.96928299     0.15100
C525        C  0.11692256  0.25409306  0.48721082    -0.14500
C526        C  0.13743471  0.23667853  0.50493694    -0.29700
H527        H  0.13146585  0.21775546  0.01962872     0.14500
H528        H  0.13034990  0.21623392  0.52234331     0.15100
C529        C  0.01314172  0.25236290  0.88585024    -0.14500
C530        C  0.99697812  0.23019324  0.86761867    -0.29700
H531        H  0.02942660  0.27222417  0.87628140     0.14500
H532        H  0.47223271  0.21925529  0.88653861     0.15100
C533        C  0.99365053  0.24816904  0.63510468    -0.14500
C534        C  0.01230474  0.22938708  0.61612946    -0.29700
H535        H  0.53185060  0.21996809  0.63583923     0.14500
H536        H  0.02943436  0.20970699  0.62496863     0.15100
Zn537      Zn  0.47787942  0.72629104  0.48350819     1.49700
Zn538      Zn  0.02204209  0.77437396  0.47149816     1.49400
Zn539      Zn  0.47831708  0.77481737  0.03812868     1.49100
Zn540      Zn  0.02764297  0.70816881  0.02409489     1.49500
O541        O  0.00308712  0.74578525  0.00158119    -1.82200
O542        O  0.49062688  0.73739390  0.44042800    -0.72900
O543        O  0.01189583  0.83074651  0.47871577    -0.72700
O544        O  0.43436700  0.76951231  0.02957989    -0.72200
O545        O  0.01088189  0.76072437  0.42911426    -0.72900
O546        O  0.43329556  0.73944775  0.48740911    -0.72500
O547        O  0.48693837  0.83172380  0.03164889    -0.73100
O548        O  0.02091872  0.71370010  0.06823485    -0.72500
O549        O  0.06683337  0.76962567  0.47473876    -0.73200
O550        O  0.48621328  0.76119596  0.08162480    -0.72600
O551        O  0.07179059  0.71546548  0.01767739    -0.73100
O552        O  0.01703825  0.65358940  0.01443409    -0.73000
O553        O  0.48334870  0.66862812  0.49176779    -0.72800
C554        C  0.99335571  0.73584031  0.41801400     0.79000
C555        C  0.00329949  0.85382987  0.00457912     0.79500
C556        C  0.41959103  0.75139862  0.00983093     0.78500
C557        C  0.00498031  0.73661780  0.08410754     0.78800
C558        C  0.08658619  0.74203554  0.00453399     0.80000
C559        C  0.99766026  0.63844429  0.99746694     0.79000
Zn560      Zn  0.47193745  0.71450368  0.28510900     1.49700
Zn561      Zn  0.02150417  0.71430333  0.22295160     1.49400
Zn562      Zn  0.47140114  0.78505510  0.23854337     1.49100
Zn563      Zn  0.02634587  0.78029605  0.27222740     1.49500
O564        O  0.49729443  0.74844496  0.26085447    -1.82200
O565        O  0.48121444  0.65790194  0.27790642    -0.72900
O566        O  0.00995167  0.72657059  0.18021577    -0.72700
O567        O  0.42743239  0.77479217  0.24522732    -0.72200
O568        O  0.01460965  0.65745699  0.23122957    -0.72900
O569        O  0.42826439  0.72340334  0.27598554    -0.72500
O570        O  0.47749086  0.77931006  0.19412036    -0.73100
O571        O  0.01738732  0.83705707  0.26458012    -0.72500
O572        O  0.06586014  0.72306482  0.22623605    -0.73200
O573        O  0.48105061  0.84042654  0.24814421    -0.72600
O574        O  0.06958744  0.76919404  0.26072581    -0.73100
O575        O  0.02181729  0.77191842  0.31677563    -0.73000
O576        O  0.47862839  0.72378112  0.32898521    -0.72800
C577        C  0.49801502  0.64016855  0.25902449     0.79000
C578        C  0.49237102  0.75519480  0.17826267     0.79500
C579        C  0.41399560  0.74816866  0.25990113     0.78500
C580        C  0.50074012  0.85607427  0.26455274     0.78800
C581        C  0.08159748  0.74555307  0.24205924     0.80000
C582        C  0.49744942  0.74317229  0.34380261     0.79000
Zn583      Zn  0.22181796  0.78520194  0.47135721     1.49700
Zn584      Zn  0.22785277  0.72975717  0.01798206     1.49400
Zn585      Zn  0.27539868  0.72163889  0.46321497     1.49100
Zn586      Zn  0.28154566  0.79184773  0.01342869     1.49500
O587        O  0.25319608  0.76074075  0.99075949    -1.82200
O588        O  0.17964903  0.76912746  0.48281894    -0.72900
O589        O  0.23457521  0.67209735  0.01035924    -0.72700
O590        O  0.26407796  0.73727741  0.42061541    -0.72200
O591        O  0.18353036  0.74117712  0.01105313    -0.72900
O592        O  0.22629895  0.77954411  0.42668749    -0.72500
O593        O  0.26689242  0.66444592  0.46958669    -0.73100
O594        O  0.32445229  0.77467297  0.00550325    -0.72500
O595        O  0.23733705  0.74234787  0.06165079    -0.73200
O596        O  0.32033306  0.72796709  0.46846311    -0.72600
O597        O  0.27400570  0.78524582  0.05766457    -0.73100
O598        O  0.27622271  0.84947646  0.00494728    -0.73000
O599        O  0.22713026  0.84237603  0.47925082    -0.73200
C600        C  0.16988929  0.76511803  0.99359100     0.79000
C601        C  0.24920402  0.65329005  0.99019099     0.79500
C602        C  0.24411668  0.76029693  0.40980606     0.78500
C603        C  0.33626446  0.74963055  0.98779939     0.78800
C604        C  0.25606928  0.76518650  0.07357367     0.80000
C605        C  0.25633972  0.86847552  0.99024349     0.79000
Zn606      Zn  0.27631614  0.72295353  0.26333734     1.49700
Zn607      Zn  0.22698867  0.79063052  0.27033802     1.49400
Zn608      Zn  0.27160938  0.78935303  0.21313489     1.49100
Zn609      Zn  0.22002734  0.72570351  0.21981617     1.49500
O610        O  0.24863499  0.75735278  0.24160205    -1.82200
O611        O  0.27165726  0.72885995  0.30779097    -0.72900
O612        O  0.23518722  0.84721870  0.26178438    -0.72700
O613        O  0.31636177  0.78234944  0.21928688    -0.72200
O614        O  0.23854595  0.77715704  0.31336168    -0.72900
O615        O  0.31901428  0.73577515  0.25428093    -0.72500
O616        O  0.26283376  0.84629813  0.21975023    -0.73100
O617        O  0.22402099  0.73397401  0.17510774    -0.72500
O618        O  0.18225975  0.78392585  0.26706258    -0.73200
O619        O  0.26112622  0.77600504  0.17009668    -0.72600
O620        O  0.17746941  0.73884228  0.23185056    -0.73100
O621        O  0.22757719  0.66850950  0.22718896    -0.73000
O622        O  0.26894403  0.66676111  0.25489372    -0.72800
C623        C  0.25623870  0.75143624  0.32445914     0.79000
C624        C  0.24891571  0.86484438  0.24046395     0.79500
C625        C  0.33156641  0.76039492  0.23691251     0.78500
C626        C  0.24157541  0.75394834  0.15867723     0.78800
C627        C  0.16600959  0.76247959  0.25085468     0.80000
C628        C  0.24816693  0.64970422  0.24097647     0.79000
N629        N  0.99703004  0.95530466  0.03511400    -0.34700
N630        N  0.99622053  0.53919376  0.03234842    -0.55300
N631        N  0.00184678  0.53365429  0.46880291    -0.34700
N632        N  0.99770950  0.94953721  0.46771145    -0.55300
C633        C  0.00339139  0.96365159  0.06424351     0.28900
C634        C  0.00540847  0.91785788  0.03044131     0.28900
C635        C  0.00906763  0.57094086  0.47430657     0.28900
C636        C  0.00638814  0.52741233  0.43885077     0.28900
C637        C  0.99166095  0.53409912  0.06245564     0.37500
C638        C  0.99040030  0.57711064  0.02625412     0.37500
C639        C  0.99160030  0.91168168  0.47286155     0.37500
C640        C  0.99119048  0.95690789  0.43832174     0.37500
C641        C  0.01602747  0.93116988  0.07813274    -0.20000
C642        C  0.01724153  0.90224416  0.05686299    -0.20000
C643        C  0.01810094  0.58870510  0.44755285    -0.20000
C644        C  0.01645604  0.56124549  0.42526430    -0.20000
C645        C  0.98292039  0.56891487  0.07549806    -0.21100
C646        C  0.98208732  0.59613984  0.05261452    -0.21100
C647        C  0.98107629  0.89500312  0.44663538    -0.21100
C648        C  0.98091872  0.92361583  0.42479854    -0.21100
C649        C  0.99655622  0.99909984  0.07892403    -0.16400
C650        C  0.00133511  0.89693013  0.00340646    -0.16400
C651        C  0.99646729  0.99252675  0.42316635    -0.16400
C652        C  0.99510465  0.59556787  0.99787396    -0.16400
H653        H  0.02400701  0.92870934  0.10104628     0.16500
H654        H  0.02599773  0.87308698  0.06044068     0.16500
H655        H  0.02503860  0.61846577  0.44436580     0.16500
H656        H  0.02199367  0.56580855  0.40175393     0.16500
H657        H  0.97813598  0.57432552  0.09907593     0.14800
H658        H  0.97644098  0.62662562  0.05520271     0.14800
H659        H  0.97420402  0.86532550  0.44345400     0.14800
H660        H  0.97399029  0.92024570  0.40167765     0.14800
H661        H  0.98460200  0.97265029  0.02032043     0.28000
H662        H  0.99119923  0.51513358  0.48394408     0.28000
N663        N  0.99638981  0.95470037  0.28401022    -0.34700
N664        N  0.99846314  0.53820226  0.28448704    -0.55300
N665        N  0.00011701  0.53932791  0.21770258    -0.34700
N666        N  0.99482971  0.95582053  0.21751639    -0.55300
C667        C  0.99043830  0.96068166  0.31374473     0.28900
C668        C  0.99133779  0.91681172  0.27841401     0.28900
C669        C  0.99468453  0.57729946  0.22370532     0.28900
C670        C  0.99348494  0.53365208  0.18816994     0.28900
C671        C  0.00408055  0.53107472  0.31413307     0.37500
C672        C  0.00473227  0.57601701  0.27932184     0.37500
C673        C  0.99871488  0.91720795  0.22220165     0.37500
C674        C  0.99835670  0.96204289  0.18741782     0.37500
C675        C  0.98167990  0.92609785  0.32712879    -0.20000
C676        C  0.98227820  0.89843001  0.30491787    -0.20000
C677        C  0.98450242  0.59585919  0.19762279    -0.20000
C678        C  0.98399497  0.56842972  0.17524070    -0.20000
C679        C  0.01386347  0.56451428  0.32778920    -0.21100
C680        C  0.01438231  0.59291583  0.30581478    -0.21100
C681        C  0.00437121  0.89881756  0.19492021    -0.21100
C682        C  0.00393916  0.92715169  0.17294636    -0.21100
C683        C  0.99449427  0.99584807  0.32944237    -0.16400
C684        C  0.99574272  0.89784210  0.25041820    -0.16400
C685        C  0.99481424  0.99840055  0.17263384    -0.16400
C686        C  0.00013031  0.59612140  0.25156154    -0.16400
H687        H  0.97553441  0.92119491  0.35046277     0.16500
H688        H  0.97666174  0.86816563  0.30798829     0.16500
H689        H  0.97801102  0.62608191  0.19484483     0.16500
H690        H  0.97708894  0.57349080  0.15216514     0.16500
H691        H  0.02003311  0.56814403  0.35108994     0.14800
H692        H  0.02114141  0.62262143  0.30908684     0.14800
H693        H  0.00807655  0.86810177  0.19109909     0.14800
H694        H  0.00691722  0.92239883  0.14904238     0.14800
H695        H  0.00650438  0.97408991  0.26915848     0.28000
H696        H  0.01078688  0.51956709  0.23204689     0.28000
N697        N  0.24550006  0.96192485  0.45691334    -0.34700
N698        N  0.25177034  0.54581454  0.45706277    -0.55300
N699        N  0.24813439  0.55228131  0.02380238    -0.34700
N700        N  0.25284786  0.96838115  0.02357932    -0.55300
C701        C  0.25059991  0.96858669  0.42707470     0.28900
C702        C  0.25067498  0.92363533  0.46222563     0.28900
C703        C  0.25380557  0.59015311  0.01793453     0.28900
C704        C  0.25484029  0.54541925  0.05326745     0.28900
C705        C  0.24471363  0.54020202  0.42769852     0.37500
C706        C  0.24729337  0.58410631  0.46247534     0.37500
C707        C  0.25073165  0.92982419  0.01868774     0.37500
C708        C  0.24708605  0.97372856  0.05336327     0.37500
C709        C  0.25854758  0.93395503  0.41319762    -0.20000
C710        C  0.25869692  0.90563289  0.43534588    -0.20000
C711        C  0.26427555  0.60740415  0.04400344    -0.20000
C712        C  0.26468367  0.57928282  0.06626640    -0.20000
C713        C  0.23577997  0.57501282  0.41448601    -0.21100
C714        C  0.23730357  0.60279970  0.43644717    -0.21100
C715        C  0.24387292  0.91061484  0.04550202    -0.21100
C716        C  0.24164084  0.93841729  0.06741464    -0.21100
C717        C  0.24673417  0.00466807  0.41188809    -0.16400
C718        C  0.25596331  0.91137319  0.99067265    -0.16400
C719        C  0.24911758  0.00958582  0.06838744    -0.16400
C720        C  0.24845936  0.61006478  0.99019107    -0.16400
H721        H  0.26361497  0.92943576  0.38957411     0.16500
H722        H  0.26395079  0.87517420  0.43195029     0.16500
H723        H  0.27106504  0.63718009  0.04682325     0.16500
H724        H  0.27190897  0.58322273  0.08925244     0.16500
H725        H  0.22841351  0.57983032  0.39160967     0.14800
H726        H  0.23130667  0.63315600  0.43351710     0.14800
H727        H  0.24092556  0.87975023  0.04902911     0.14800
H728        H  0.23697980  0.93307355  0.09101631     0.14800
H729        H  0.23616745  0.98153939  0.47212227     0.28000
H730        H  0.23731239  0.53338431  0.00947369     0.28000
N731        N  0.24672109  0.54996215  0.20762270    -0.34700
N732        N  0.24872301  0.54887620  0.27383627    -0.55300
N733        N  0.24655287  0.96505451  0.27317501    -0.34700
N734        N  0.24858833  0.96573943  0.20677682    -0.55300
C735        C  0.25227886  0.58774159  0.21309495     0.28900
C736        C  0.25277393  0.54367045  0.17798312     0.28900
C737        C  0.25336608  0.97172817  0.30248901     0.28900
C738        C  0.25418062  0.92768195  0.26728809     0.28900
C739        C  0.24415759  0.58735679  0.26904661     0.37500
C740        C  0.24423328  0.54249198  0.30377566     0.37500
C741        C  0.24232739  0.97251668  0.17724414     0.37500
C742        C  0.24340764  0.92764716  0.21205520     0.37500
C743        C  0.26165289  0.60581215  0.18657954    -0.20000
C744        C  0.26200211  0.57799377  0.16447246    -0.20000
C745        C  0.26551808  0.93825878  0.31531516    -0.20000
C746        C  0.26614401  0.91050642  0.29312533    -0.20000
C747        C  0.23702274  0.60550922  0.29606701    -0.21100
C748        C  0.23711761  0.57710291  0.31799846    -0.21100
C749        C  0.23323558  0.93863185  0.16375033    -0.21100
C750        C  0.23380928  0.91024137  0.18574300    -0.21100
C751        C  0.24789007  0.60681143  0.24099954    -0.16400
C752        C  0.24819078  0.50852173  0.16249422    -0.16400
C753        C  0.24873274  0.90803630  0.23987550    -0.16400
C754        C  0.24851076  0.50634834  0.31865606    -0.16400
H755        H  0.26754344  0.63597116  0.18341759     0.16500
H756        H  0.26812320  0.58267827  0.14108637     0.16500
H757        H  0.27331113  0.93427506  0.33820363     0.16500
H758        H  0.27443466  0.88098417  0.29582266     0.16500
H759        H  0.23239035  0.63607903  0.29968227     0.14800
H760        H  0.23265053  0.58157036  0.34167537     0.14800
H761        H  0.22638551  0.93486302  0.14065371     0.14800
H762        H  0.22759224  0.88030257  0.18262682     0.14800
H763        H  0.23630477  0.53084157  0.22246322     0.28000
H764        H  0.23411411  0.98332766  0.25907376     0.28000
C765        C  0.24847902  0.50537682  0.35174214    -0.11400
C766        C  0.24673671  0.00516786  0.37881311    -0.12900
C767        C  0.24813601  0.00957906  0.10146840    -0.11400
C768        C  0.24917814  0.50916778  0.12944348    -0.12900
C769        C  0.99548390  0.99368093  0.39006193    -0.11400
C770        C  0.99484328  0.99471260  0.36257654    -0.12900
C771        C  0.99584848  0.99954657  0.11202450    -0.11400
C772        C  0.99512632  0.99943014  0.13951044    -0.12900
C773        C  0.25925834  0.74681684  0.35736261    -0.14500
C774        C  0.24127077  0.76552938  0.37691330    -0.29700
H775        H  0.27636722  0.72670403  0.36565600     0.14500
H776        H  0.22390597  0.78526317  0.36862164     0.15100
C777        C  0.25760683  0.76917027  0.10662760    -0.14500
C778        C  0.23909587  0.75056620  0.12561443    -0.29700
H779        H  0.27464361  0.78803565  0.11555747     0.14500
H780        H  0.22200710  0.73173775  0.11675142     0.15100
C781        C  0.38117593  0.74495098  0.25827123    -0.14500
C782        C  0.36444042  0.76439588  0.23777432    -0.29700
H783        H  0.37057747  0.72490495  0.27401166     0.14500
H784        H  0.37494243  0.78421973  0.22179934     0.15100
C785        C  0.11446627  0.74352167  0.23835145    -0.14500
C786        C  0.13313996  0.76534974  0.25449478    -0.29700
H787        H  0.12353250  0.72310240  0.22193568     0.14500
H788        H  0.12414617  0.78573595  0.27096886     0.15100
C789        C  0.38679670  0.75794928  0.00905334    -0.14500
C790        C  0.36904827  0.74255733  0.98800043    -0.29700
H791        H  0.37702211  0.77665371  0.02628654     0.14500
H792        H  0.37910583  0.72529146  0.46922691     0.15100
C793        C  0.11955932  0.74075138  0.00681984    -0.14500
C794        C  0.13689024  0.76686703  0.99270097    -0.29700
H795        H  0.12422247  0.77585495  0.47023771     0.14500
H796        H  0.12659949  0.78976581  0.97905122     0.15100
C797        C  0.99060122  0.73259983  0.38504546    -0.14500
C798        C  0.00724761  0.75394812  0.36601340    -0.29700
H799        H  0.97475379  0.71195201  0.37628858     0.14500
H800        H  0.47887353  0.72188497  0.38679711     0.15100
C801        C  0.98962331  0.75446283  0.13544490    -0.14500
C802        C  0.00638348  0.73232252  0.11703335    -0.29700
H803        H  0.47608461  0.78109638  0.13568192     0.14500
H804        H  0.02175485  0.71059386  0.12629697     0.15100
Zn805      Zn  0.47626499  0.71287914  0.98459425     1.49700
Zn806      Zn  0.03018455  0.77960623  0.97904285     1.49400
Zn807      Zn  0.47571589  0.79146494  0.53417110     1.49100
Zn808      Zn  0.03218643  0.70899078  0.52200676     1.49500
O809        O  0.00189244  0.74046739  0.50058494    -1.82200
O810        O  0.48689939  0.72640011  0.94123935    -0.72900
O811        O  0.02066658  0.83617842  0.98615208    -0.72700
O812        O  0.43261254  0.78485642  0.52279481    -0.72200
O813        O  0.02587612  0.77073571  0.93470578    -0.72900
O814        O  0.43250933  0.72872689  0.99096840    -0.72500
O815        O  0.48611381  0.84748104  0.52742130    -0.73100
O816        O  0.02780105  0.71595669  0.56683984    -0.72500
O817        O  0.07355880  0.76927802  0.98972815    -0.73200
O818        O  0.47891669  0.78127435  0.57853883    -0.72600
O819        O  0.07452924  0.72435306  0.51008691    -0.73100
O820        O  0.02612860  0.65162085  0.51477289    -0.73000
O821        O  0.48065586  0.65410635  0.99155066    -0.72800
C822        C  0.00813398  0.75091131  0.91892133     0.79000
C823        C  0.99816985  0.84823339  0.50007989     0.79500
C824        C  0.41905716  0.76347349  0.50419076     0.78500
C825        C  0.01000108  0.73598657  0.58321950     0.78800
C826        C  0.08444057  0.74918884  0.49104688     0.80000
C827        C  0.00534473  0.63311696  0.50189537     0.79000
Zn828      Zn  0.47110896  0.71021762  0.78452792     1.49700
Zn829      Zn  0.02217603  0.70614508  0.72275259     1.49400
Zn830      Zn  0.47368332  0.77597276  0.73350258     1.49100
Zn831      Zn  0.02506291  0.76761149  0.77688840     1.49500
O832        O  0.49780434  0.74405804  0.76161680    -1.82200
O833        O  0.48108646  0.65395044  0.77837647    -0.72900
O834        O  0.01241113  0.72048877  0.67970638    -0.72700
O835        O  0.42905292  0.76468216  0.73738404    -0.72200
O836        O  0.01568852  0.64855716  0.72932752    -0.72900
O837        O  0.42834933  0.71810213  0.77248114    -0.72500
O838        O  0.48595406  0.76353563  0.69076429    -0.73100
O839        O  0.01782326  0.82540570  0.77041409    -0.72500
O840        O  0.06610241  0.71563252  0.72791296    -0.73200
O841        O  0.48013408  0.83363866  0.74027881    -0.72600
O842        O  0.06894013  0.75696046  0.76612015    -0.73100
O843        O  0.01705354  0.75493521  0.82134141    -0.73000
O844        O  0.47413654  0.71942926  0.82881832    -0.72800
C845        C  0.50142795  0.63625614  0.76345730     0.79000
C846        C  0.50509429  0.74014178  0.67910406     0.79500
C847        C  0.41486348  0.74034513  0.75378748     0.78500
C848        C  0.49503319  0.85198633  0.75991442     0.78800
C849        C  0.08139325  0.73618420  0.74567705     0.80000
C850        C  0.49050764  0.74100021  0.84465937     0.79000
Zn851      Zn  0.22748895  0.79603722  0.96761466     1.49700
Zn852      Zn  0.23251051  0.71969929  0.52103917     1.49400
Zn853      Zn  0.27571488  0.72660900  0.96322718     1.49100
Zn854      Zn  0.28001813  0.78793063  0.51234471     1.49500
O855        O  0.25244658  0.75352715  0.49187493    -1.82200
O856        O  0.18408277  0.78797418  0.97618075    -0.72900
O857        O  0.24211470  0.66331735  0.51334036    -0.72700
O858        O  0.26678818  0.74027748  0.91972416    -0.72200
O859        O  0.18768084  0.72387841  0.51802392    -0.72900
O860        O  0.23327214  0.78842717  0.92361742    -0.72500
O861        O  0.26500073  0.67062019  0.97029779    -0.73100
O862        O  0.32312794  0.77475529  0.50252989    -0.72500
O863        O  0.24327484  0.73462446  0.56325529    -0.73200
O864        O  0.32039562  0.72988689  0.96994928    -0.72600
O865        O  0.27530577  0.78298102  0.55716633    -0.73100
O866        O  0.27107715  0.84415376  0.50258327    -0.73000
O867        O  0.23610910  0.85159075  0.97551322    -0.73200
C868        C  0.16991374  0.74408242  0.50174981     0.79000
C869        C  0.25434894  0.64574406  0.49111361     0.79500
C870        C  0.24926135  0.76552705  0.90778069     0.78500
C871        C  0.33569937  0.75005088  0.48509374     0.78800
C872        C  0.25991114  0.76077118  0.57404209     0.80000
C873        C  0.24853352  0.86119941  0.49066265     0.79000
Zn874      Zn  0.27624461  0.71986723  0.76149080     1.49700
Zn875      Zn  0.22647084  0.78776835  0.77001496     1.49400
Zn876      Zn  0.27147783  0.78859027  0.71349182     1.49100
Zn877      Zn  0.21949195  0.72472716  0.71860526     1.49500
O878        O  0.24837623  0.75539658  0.74090590    -1.82200
O879        O  0.27260470  0.72547561  0.80624041    -0.72900
O880        O  0.23321884  0.84503248  0.76222635    -0.72700
O881        O  0.31624238  0.78094503  0.71892439    -0.72200
O882        O  0.23984426  0.77420460  0.81206666    -0.72900
O883        O  0.31922396  0.73104926  0.75095806    -0.72500
O884        O  0.26208793  0.84543341  0.72103222    -0.73100
O885        O  0.22424787  0.73400902  0.67432148    -0.72500
O886        O  0.18175283  0.77897886  0.76840136    -0.73200
O887        O  0.26189804  0.77548536  0.67036743    -0.72600
O888        O  0.17685616  0.73643900  0.73137950    -0.73100
O889        O  0.22645778  0.66738739  0.72462129    -0.73000
O890        O  0.26754203  0.66413137  0.75263634    -0.72800
C891        C  0.25770089  0.74857491  0.82299205     0.79000
C892        C  0.24728544  0.86335545  0.74151693     0.79500
C893        C  0.33168160  0.75674261  0.73444060     0.78500
C894        C  0.24257613  0.75355449  0.65847532     0.78800
C895        C  0.16546364  0.75798797  0.75186746     0.80000
C896        C  0.24661937  0.64785233  0.73836853     0.79000
N897        N  0.99683087  0.94806515  0.53417183    -0.34700
N898        N  0.00618792  0.53213954  0.53509782    -0.55300
N899        N  0.99416850  0.53722536  0.96597191    -0.34700
N900        N  0.99953021  0.95334581  0.96902479    -0.55300
C901        C  0.00431928  0.95399634  0.56341615     0.28900
C902        C  0.00339405  0.91045026  0.52788721     0.28900
C903        C  0.00002372  0.57516871  0.97059011     0.28900
C904        C  0.00147558  0.52931783  0.93683027     0.28900
C905        C  0.00185809  0.52574613  0.56506689     0.37500
C906        C  0.00264651  0.57082472  0.53051195     0.37500
C907        C  0.99585292  0.91511317  0.97508737     0.37500
C908        C  0.99431089  0.95832722  0.93910164     0.37500
C909        C  0.01565481  0.91981445  0.57584181    -0.20000
C910        C  0.01531459  0.89243906  0.55342200    -0.20000
C911        C  0.01087031  0.59164502  0.94402618    -0.20000
C912        C  0.01174369  0.56272336  0.92277528    -0.20000
C913        C  0.99607529  0.56056585  0.57956338    -0.21100
C914        C  0.99645943  0.58910525  0.55771027    -0.21100
C915        C  0.98815490  0.89583609  0.94892961    -0.21100
C916        C  0.98732248  0.92316793  0.92619140    -0.21100
C917        C  0.00007893  0.98899437  0.57948920    -0.16400
C918        C  0.99735760  0.89144250  0.50030786    -0.16400
C919        C  0.99828896  0.99347691  0.92291066    -0.16400
C920        C  0.00598901  0.59015693  0.50235679    -0.16400
H921        H  0.02375433  0.91519146  0.59857455     0.16500
H922        H  0.02308282  0.86264894  0.55578402     0.16500
H923        H  0.01767904  0.62136129  0.94032668     0.16500
H924        H  0.01946621  0.56589953  0.89975959     0.16500
H925        H  0.99232299  0.56509740  0.60338580     0.14800
H926        H  0.99273488  0.61982723  0.56149342     0.14800
H927        H  0.98380603  0.86521339  0.94633343     0.14800
H928        H  0.98232770  0.91765987  0.90283156     0.14800
H929        H  0.98490059  0.96727745  0.52035348     0.28000
H930        H  0.98312805  0.51887001  0.98100132     0.28000
N931        N  0.00437966  0.94564577  0.78536450    -0.34700
N932        N  0.00090703  0.53019395  0.78321168    -0.55300
N933        N  0.00381443  0.52887642  0.71721642    -0.34700
N934        N  0.00085921  0.94458360  0.71890163    -0.55300
C935        C  0.99808790  0.95343562  0.81477571     0.28900
C936        C  0.99749931  0.90807133  0.78062789     0.28900
C937        C  0.99646202  0.56657227  0.72216179     0.28900
C938        C  0.99696754  0.52120775  0.68812337     0.28900
C939        C  0.00625915  0.52446004  0.81301567     0.37500
C940        C  0.00637141  0.56806053  0.77736101     0.37500
C941        C  0.00523955  0.90625525  0.72456134     0.37500
C942        C  0.00482421  0.94979654  0.68871101     0.37500
C943        C  0.98741283  0.92027054  0.82886400    -0.20000
C944        C  0.98708273  0.89163612  0.80739146    -0.20000
C945        C  0.98477657  0.58302780  0.69597360    -0.20000
C946        C  0.98506313  0.55435548  0.67453168    -0.20000
C947        C  0.01510228  0.55878220  0.82606324    -0.21100
C948        C  0.01526879  0.58638794  0.80351930    -0.21100
C949        C  0.01190621  0.88708802  0.69779337    -0.21100
C950        C  0.01151522  0.91463110  0.67513140    -0.21100
C951        C  0.00307515  0.98912734  0.82942675    -0.16400
C952        C  0.00126491  0.88782031  0.75310219    -0.16400
C953        C  0.00031520  0.98542279  0.67311563    -0.16400
C954        C  0.00136746  0.58688552  0.74925465    -0.16400
H955        H  0.98032516  0.91703362  0.85209121     0.16500
H956        H  0.97975530  0.86213188  0.81106813     0.16500
H957        H  0.97672892  0.61256457  0.69265228     0.16500
H958        H  0.97696694  0.55742669  0.65170367     0.16500
H959        H  0.02088556  0.56349003  0.84933318     0.14800
H960        H  0.02116665  0.61653282  0.80618453     0.14800
H961        H  0.01629895  0.85635722  0.69477216     0.14800
H962        H  0.01533169  0.90925350  0.65137078     0.14800
H963        H  0.01551582  0.96359907  0.77012738     0.28000
H964        H  0.01593370  0.51082307  0.73177482     0.28000
N965        N  0.25182261  0.96887765  0.95716497    -0.34700
N966        N  0.24966207  0.55283765  0.95717687    -0.55300
N967        N  0.24816581  0.54502654  0.52334700    -0.34700
N968        N  0.24807400  0.96121258  0.52317470    -0.55300
C969        C  0.25689225  0.97578292  0.92734322     0.28900
C970        C  0.25936055  0.93129367  0.96273704     0.28900
C971        C  0.25778513  0.58147047  0.51759673     0.28900
C972        C  0.25416122  0.53688130  0.55275481     0.28900
C973        C  0.24390894  0.54659742  0.92755074     0.37500
C974        C  0.24377495  0.59089967  0.96235064     0.37500
C975        C  0.24330514  0.92309993  0.51834998     0.37500
C976        C  0.24350291  0.96712032  0.55309608     0.37500
C977        C  0.26757941  0.94209001  0.91385934    -0.20000
C978        C  0.26914790  0.91404684  0.93613463    -0.20000
C979        C  0.27026744  0.59643953  0.54358357    -0.20000
C980        C  0.26783779  0.56837110  0.56575922    -0.20000
C981        C  0.23438897  0.58089311  0.91389283    -0.21100
C982        C  0.23431363  0.60892201  0.93583345    -0.21100
C983        C  0.23592083  0.90466678  0.54533738    -0.21100
C984        C  0.23595091  0.93258258  0.56728492    -0.21100
C985        C  0.25050287  0.01097421  0.91172396    -0.16400
C986        C  0.24715173  0.90412274  0.49033680    -0.16400
C987        C  0.24872079  0.00245655  0.56802771    -0.16400
C988        C  0.25340676  0.60251945  0.49024284    -0.16400
H989        H  0.27362096  0.93804069  0.89042110     0.16500
H990        H  0.27649410  0.88423007  0.93301911     0.16500
H991        H  0.28010026  0.62470040  0.54637768     0.16500
H992        H  0.27566787  0.57069333  0.58869854     0.16500
H993        H  0.22818438  0.58536496  0.89060279     0.14800
H994        H  0.22793783  0.63911266  0.93255388     0.14800
H995        H  0.23121857  0.87420422  0.54890181     0.14800
H996        H  0.23155608  0.92774394  0.59101309     0.14800
H997        H  0.24065424  0.98727988  0.97206085     0.28000
H998        H  0.23503399  0.52861836  0.50910051     0.28000
N999        N  0.24250560  0.54742656  0.70618789    -0.34700
N1000       N  0.24570056  0.54814585  0.77268324    -0.55300
N1001       N  0.24518450  0.96450235  0.77375825    -0.34700
N1002       N  0.24661731  0.96354587  0.70725191    -0.55300
C1003       C  0.24838869  0.58529909  0.71088346     0.28900
C1004       C  0.24757887  0.54030273  0.67647470     0.28900
C1005       C  0.25264567  0.97182661  0.80284821     0.28900
C1006       C  0.25192170  0.92667904  0.76836251     0.28900
C1007       C  0.24138850  0.58648676  0.76709256     0.37500
C1008       C  0.24147858  0.54294906  0.80281135     0.37500
C1009       C  0.24065336  0.96962294  0.67757378     0.37500
C1010       C  0.24070745  0.92581550  0.71318067     0.37500
C1011       C  0.25680201  0.60265494  0.68374477    -0.20000
C1012       C  0.25620919  0.57429766  0.66206189    -0.20000
C1013       C  0.26409809  0.93822228  0.81607144    -0.20000
C1014       C  0.26375277  0.90980006  0.79436163    -0.20000
C1015       C  0.23454475  0.60567679  0.79376668    -0.21100
C1016       C  0.23464013  0.57812598  0.81630963    -0.21100
C1017       C  0.23084958  0.93567813  0.66467769    -0.21100
C1018       C  0.23076871  0.90796969  0.68718424    -0.21100
C1019       C  0.24521970  0.60504252  0.73868575    -0.16400
C1020       C  0.24316561  0.50446442  0.66186527    -0.16400
C1021       C  0.24630792  0.90661199  0.74109516    -0.16400
C1022       C  0.24594196  0.50745146  0.81856211    -0.16400
H1023       H  0.26265622  0.63269876  0.67988000     0.16500
H1024       H  0.26136324  0.57841501  0.63837953     0.16500
H1025       H  0.27210805  0.93455987  0.83888708     0.16500
H1026       H  0.27144208  0.88007958  0.79745279     0.16500
H1027       H  0.23010253  0.63640786  0.79676358     0.14800
H1028       H  0.23038395  0.58351823  0.83992692     0.14800
H1029       H  0.22429038  0.93133421  0.64155106     0.14800
H1030       H  0.22419401  0.87807110  0.68457812     0.14800
H1031       H  0.23272290  0.52869046  0.72175082     0.28000
H1032       H  0.23319173  0.98297822  0.75941012     0.28000
C1033       C  0.24706720  0.50836690  0.85173078    -0.11400
C1034       C  0.24978005  0.01018703  0.87858011    -0.12900
C1035       C  0.24796764  0.00302882  0.60109323    -0.11400
C1036       C  0.24395871  0.50362590  0.62882771    -0.12900
C1037       C  0.00005708  0.99201412  0.88988062    -0.11400
C1038       C  0.00155924  0.99044507  0.86247206    -0.12900
C1039       C  0.00012073  0.98728783  0.61256664    -0.11400
C1040       C  0.00002881  0.98583405  0.64003006    -0.12900
C1041       C  0.26136114  0.74508526  0.85588408    -0.14500
C1042       C  0.24672183  0.76891562  0.87483599    -0.29700
H1043       H  0.27614643  0.72234864  0.86463736     0.14500
H1044       H  0.23189191  0.79154062  0.86597106     0.15100
C1045       C  0.26123252  0.76618631  0.60688859    -0.14500
C1046       C  0.24143133  0.74935264  0.62553928    -0.29700
H1047       H  0.27830179  0.78502579  0.61577991     0.14500
H1048       H  0.22413521  0.73100850  0.61645613     0.15100
C1049       C  0.38200105  0.73711673  0.75192055    -0.14500
C1050       C  0.36474233  0.75936325  0.73373322    -0.29700
H1051       H  0.37156873  0.71589080  0.76680911     0.14500
H1052       H  0.37492273  0.78091149  0.71896768     0.15100
C1053       C  0.11427108  0.73559867  0.74161960    -0.14500
C1054       C  0.13266610  0.75874774  0.75694356    -0.29700
H1055       H  0.12355035  0.71584783  0.72482489     0.14500
H1056       H  0.12351796  0.77862965  0.77369912     0.15100
C1057       C  0.38606124  0.76725404  0.50284330    -0.14500
C1058       C  0.36882445  0.74628318  0.48445201    -0.29700
H1059       H  0.37553632  0.78799389  0.51812609     0.14500
H1060       H  0.37865312  0.72356311  0.97087386     0.15100
C1061       C  0.11697208  0.75538894  0.48755786    -0.14500
C1062       C  0.13742009  0.73750141  0.50515822    -0.29700
H1063       H  0.12979298  0.71742139  0.02005654     0.14500
H1064       H  0.13020161  0.71701530  0.52247629     0.15100
C1065       C  0.01168908  0.75268955  0.88578531    -0.14500
C1066       C  0.99583209  0.73027224  0.86745417    -0.29700
H1067       H  0.02775997  0.77290526  0.87630332     0.14500
H1068       H  0.47035583  0.71952727  0.88702697     0.15100
C1069       C  0.99312754  0.75028508  0.63500378    -0.14500
C1070       C  0.01214929  0.73176076  0.61625735    -0.29700
H1071       H  0.52432017  0.71689637  0.63691290     0.14500
H1072       H  0.02937308  0.71237617  0.62529588     0.15100
Zn1073     Zn  0.97353007  0.20777684  0.47975060     1.49700
Zn1074     Zn  0.52556275  0.29317638  0.48465618     1.49400
Zn1075     Zn  0.98062709  0.27855127  0.02919093     1.49100
Zn1076     Zn  0.52785814  0.20483803  0.03510062     1.49500
O1077       O  0.50419071  0.24180275  0.01099347    -1.82200
O1078       O  0.97791622  0.21375736  0.43503861    -0.72900
O1079       O  0.51548696  0.34879610  0.49210302    -0.72700
O1080       O  0.93668243  0.27204750  0.02223225    -0.72200
O1081       O  0.52022012  0.28411926  0.44085592    -0.72900
O1082       O  0.93055683  0.22289765  0.48929193    -0.72500
O1083       O  0.98827752  0.33567161  0.02298448    -0.73100
O1084       O  0.51988633  0.21229506  0.07890005    -0.72500
O1085       O  0.56894778  0.28649442  0.49237929    -0.73200
O1086       O  0.98887046  0.26399199  0.07229943    -0.72600
O1087       O  0.57221859  0.21084058  0.02904219    -0.73100
O1088       O  0.51725566  0.15007832  0.02630645    -0.73000
O1089       O  0.98132865  0.15116459  0.48909557    -0.72800
C1090       C  0.50516738  0.25996290  0.42604880     0.79000
C1091       C  0.50562051  0.34954338  0.01422181     0.79500
C1092       C  0.92118410  0.25469135  0.00267551     0.78500
C1093       C  0.50304066  0.23536154  0.09370301     0.78800
C1094       C  0.58729393  0.23590527  0.01446707     0.80000
C1095       C  0.49886371  0.13440401  0.00854569     0.79000
Zn1096     Zn  0.97267161  0.21550069  0.27946086     1.49700
Zn1097     Zn  0.51802370  0.21648802  0.23158335     1.49400
Zn1098     Zn  0.96694396  0.28063747  0.22862138     1.49100
Zn1099     Zn  0.52158875  0.27663628  0.28558996     1.49500
O1100       O  0.99532154  0.24764367  0.25101033    -1.82200
O1101       O  0.98017137  0.15844858  0.27169657    -0.72900
O1102       O  0.50671321  0.22903205  0.18933723    -0.72700
O1103       O  0.92410535  0.26844910  0.23880920    -0.72200
O1104       O  0.51336275  0.15923384  0.23848873    -0.72900
O1105       O  0.92801729  0.22420380  0.27545911    -0.72500
O1106       O  0.97236279  0.27328508  0.18421526    -0.73100
O1107       O  0.51502828  0.33486786  0.28052214    -0.72500
O1108       O  0.56166060  0.22646706  0.23531248    -0.73200
O1109       O  0.97351189  0.33731162  0.23632090    -0.72600
O1110       O  0.56561701  0.26511406  0.27500766    -0.73100
O1111       O  0.51272174  0.26270787  0.32926016    -0.73000
O1112       O  0.98439237  0.22801115  0.32209594    -0.72800
C1113       C  0.99495669  0.13990398  0.25157441     0.79000
C1114       C  0.98932966  0.25125640  0.16856667     0.79500
C1115       C  0.91217228  0.24550405  0.25797036     0.78500
C1116       C  0.99362099  0.35519233  0.25061046     0.78800
C1117       C  0.57750217  0.24529886  0.25364371     0.80000
C1118       C  0.00337050  0.25108546  0.33322026     0.79000
Zn1119     Zn  0.72183905  0.28600062  0.47970195     1.49700
Zn1120     Zn  0.72849585  0.22348747  0.02473897     1.49400
Zn1121     Zn  0.77357322  0.22090146  0.46974534     1.49100
Zn1122     Zn  0.78210646  0.28527889  0.02050101     1.49500
O1123       O  0.75311640  0.25541372  0.99750006    -1.82200
O1124       O  0.67995792  0.27339978  0.49503626    -0.72900
O1125       O  0.73604688  0.16616215  0.01685415    -0.72700
O1126       O  0.76061822  0.23570642  0.42784554    -0.72200
O1127       O  0.68421996  0.23366791  0.01803239    -0.72900
O1128       O  0.72343944  0.27866244  0.43463144    -0.72500
O1129       O  0.76601634  0.16394391  0.47698179    -0.73100
O1130       O  0.82500682  0.27009945  0.00913337    -0.72500
O1131       O  0.73735040  0.23606808  0.06858661    -0.73200
O1132       O  0.81838140  0.22645140  0.47264818    -0.72600
O1133       O  0.77566871  0.27653454  0.06516020    -0.73100
O1134       O  0.77594318  0.34325774  0.01372836    -0.73000
O1135       O  0.73007974  0.34285053  0.48647126    -0.73200
C1136       C  0.67018029  0.25876965  0.00196905     0.79000
C1137       C  0.75054859  0.14776118  0.99637937     0.79500
C1138       C  0.74047402  0.25864266  0.41739962     0.78500
C1139       C  0.83610286  0.24722864  0.98925995     0.78800
C1140       C  0.75677400  0.25756489  0.08086240     0.80000
C1141       C  0.75643299  0.36283453  0.99895015     0.79000
Zn1142     Zn  0.77349026  0.22190685  0.27066868     1.49700
Zn1143     Zn  0.72373144  0.28872519  0.27823561     1.49400
Zn1144     Zn  0.76739031  0.28778494  0.22036248     1.49100
Zn1145     Zn  0.71608170  0.22390903  0.22760701     1.49500
O1146       O  0.74504224  0.25559661  0.24910591    -1.82200
O1147       O  0.76847380  0.22695784  0.31537777    -0.72900
O1148       O  0.73180168  0.34531180  0.27007309    -0.72700
O1149       O  0.81209965  0.28094188  0.22559252    -0.72200
O1150       O  0.73502015  0.27482411  0.32099732    -0.72900
O1151       O  0.81624235  0.23504042  0.26097034    -0.72500
O1152       O  0.75834977  0.34467927  0.22731017    -0.73100
O1153       O  0.72022232  0.23160748  0.18236278    -0.72500
O1154       O  0.67917765  0.28210285  0.27599160    -0.73200
O1155       O  0.75743885  0.27346582  0.17736996    -0.72600
O1156       O  0.67333615  0.23703578  0.24093485    -0.73100
O1157       O  0.72454947  0.16664701  0.23503101    -0.73000
O1158       O  0.76676164  0.16584546  0.26150461    -0.72800
C1159       C  0.75262975  0.24907472  0.33207786     0.79000
C1160       C  0.74497377  0.36308724  0.24848385     0.79500
C1161       C  0.82804553  0.25925922  0.24270991     0.78500
C1162       C  0.73823329  0.25098499  0.16588603     0.78800
C1163       C  0.66243648  0.26063614  0.26040072     0.80000
C1164       C  0.74591655  0.14831982  0.24804842     0.79000
N1165       N  0.49918044  0.45021979  0.04573249    -0.34700
N1166       N  0.49748743  0.03463597  0.04311640    -0.55300
N1167       N  0.50553037  0.04882282  0.47760486    -0.34700
N1168       N  0.49580538  0.46562878  0.47855266    -0.55300
C1169       C  0.50533985  0.45794592  0.07505531     0.28900
C1170       C  0.50763039  0.41293242  0.04058887     0.28900
C1171       C  0.51104976  0.08675102  0.48299733     0.28900
C1172       C  0.51215142  0.04201527  0.44804766     0.28900
C1173       C  0.49298317  0.02922305  0.07319454     0.37500
C1174       C  0.49201193  0.07272028  0.03730872     0.37500
C1175       C  0.49005365  0.42785496  0.48404630     0.37500
C1176       C  0.48909829  0.47218647  0.44918837     0.37500
C1177       C  0.51765478  0.42506577  0.08867021    -0.20000
C1178       C  0.51912077  0.39669061  0.06696954    -0.20000
C1179       C  0.52117106  0.10422868  0.45648976    -0.20000
C1180       C  0.52180642  0.07607921  0.43451321    -0.20000
C1181       C  0.48465903  0.06403244  0.08650122    -0.21100
C1182       C  0.48393049  0.09153182  0.06382626    -0.21100
C1183       C  0.47945859  0.41041527  0.45818631    -0.21100
C1184       C  0.47885228  0.43859254  0.43610624    -0.21100
C1185       C  0.49909898  0.49337343  0.09006653    -0.16400
C1186       C  0.50387802  0.39251890  0.01322353    -0.16400
C1187       C  0.49505530  0.50701164  0.43354436    -0.16400
C1188       C  0.49680389  0.09143728  0.00903033    -0.16400
H1189       H  0.52513500  0.42191450  0.11172964     0.16500
H1190       H  0.52775902  0.36742004  0.07025855     0.16500
H1191       H  0.52746425  0.13422303  0.45323718     0.16500
H1192       H  0.52865337  0.08027176  0.41123985     0.16500
H1193       H  0.48003136  0.06926780  0.11010544     0.14800
H1194       H  0.47854134  0.12204417  0.06668989     0.14800
H1195       H  0.47310999  0.38044671  0.45542010     0.14800
H1196       H  0.47167966  0.43479579  0.41312804     0.14800
H1197       H  0.48697679  0.46783204  0.03095222     0.28000
H1198       H  0.49472894  0.03000724  0.49230657     0.28000
N1199       N  0.50219091  0.45639124  0.29644392    -0.34700
N1200       N  0.50522875  0.04113445  0.29283048    -0.55300
N1201       N  0.50372807  0.03897659  0.22642046    -0.34700
N1202       N  0.49992623  0.45487402  0.22996980    -0.55300
C1203       C  0.49633249  0.46429770  0.32592467     0.28900
C1204       C  0.49579820  0.41856311  0.29191001     0.28900
C1205       C  0.49595749  0.07649697  0.23152870     0.28900
C1206       C  0.49599246  0.03095177  0.19758013     0.28900
C1207       C  0.51190828  0.03649582  0.32246379     0.37500
C1208       C  0.50849377  0.07927354  0.28637781     0.37500
C1209       C  0.50448684  0.41665618  0.23597776     0.37500
C1210       C  0.50522858  0.45992565  0.19997352     0.37500
C1211       C  0.48668043  0.43080944  0.34035464    -0.20000
C1212       C  0.48625170  0.40201654  0.31895128    -0.20000
C1213       C  0.48331679  0.09251817  0.20560766    -0.20000
C1214       C  0.48342827  0.06380732  0.18420712    -0.20000
C1215       C  0.51955571  0.07177379  0.33481543    -0.21100
C1216       C  0.51746802  0.09886790  0.31196852    -0.21100
C1217       C  0.51274797  0.39743851  0.20968190    -0.21100
C1218       C  0.51315500  0.42481326  0.18693976    -0.21100
C1219       C  0.50071089  0.50047421  0.34024787    -0.16400
C1220       C  0.49938348  0.39825150  0.26432058    -0.16400
C1221       C  0.50057746  0.49517110  0.18389303    -0.16400
C1222       C  0.50115210  0.09719323  0.25844945    -0.16400
H1223       H  0.48054246  0.42733985  0.36381273     0.16500
H1224       H  0.47965270  0.37227107  0.32292604     0.16500
H1225       H  0.47476486  0.12184267  0.20241069     0.16500
H1226       H  0.47476409  0.06666506  0.16157205     0.16500
H1227       H  0.52545959  0.07755560  0.35796995     0.14800
H1228       H  0.52164272  0.12960048  0.31413505     0.14800
H1229       H  0.51775948  0.36678580  0.20705550     0.14800
H1230       H  0.51833865  0.41934324  0.16347176     0.14800
H1231       H  0.51263710  0.47466476  0.28096741     0.28000
H1232       H  0.51639339  0.02124019  0.24072315     0.28000
N1233       N  0.74787774  0.46160012  0.46495723    -0.34700
N1234       N  0.75668542  0.04548968  0.46459306    -0.55300
N1235       N  0.74959962  0.04718908  0.03044275    -0.34700
N1236       N  0.75403496  0.46294380  0.03201425    -0.55300
C1237       C  0.75288870  0.46892785  0.43518709     0.28900
C1238       C  0.75472352  0.42370103  0.47008837     0.28900
C1239       C  0.75568925  0.08486280  0.02430292     0.28900
C1240       C  0.75600580  0.04064380  0.06000619     0.28900
C1241       C  0.74994498  0.03950919  0.43516539     0.37500
C1242       C  0.74945224  0.08296976  0.47049939     0.37500
C1243       C  0.75081831  0.42452194  0.02720182     0.37500
C1244       C  0.74712454  0.46895950  0.06147019     0.37500
C1245       C  0.76283047  0.43513633  0.42127809    -0.20000
C1246       C  0.76395561  0.40660516  0.44324941    -0.20000
C1247       C  0.76617348  0.10231598  0.05028391    -0.20000
C1248       C  0.76614133  0.07451676  0.07278470    -0.20000
C1249       C  0.73843822  0.07330506  0.42237411    -0.21100
C1250       C  0.73801392  0.10078612  0.44468497    -0.21100
C1251       C  0.74210319  0.40599986  0.05372737    -0.21100
C1252       C  0.73978973  0.43417136  0.07541002    -0.21100
C1253       C  0.74694957  0.50460239  0.42000904    -0.16400
C1254       C  0.75667912  0.40569618  0.99948757    -0.16400
C1255       C  0.74964442  0.50491224  0.07629005    -0.16400
C1256       C  0.75040919  0.10450069  0.99644919    -0.16400
H1257       H  0.76852526  0.43128492  0.39773401     0.16500
H1258       H  0.77068230  0.37661721  0.43979952     0.16500
H1259       H  0.77318202  0.13203713  0.05290476     0.16500
H1260       H  0.77316823  0.07869106  0.09582026     0.16500
H1261       H  0.73072718  0.07761860  0.39954001     0.14800
H1262       H  0.72991329  0.13040330  0.44211792     0.14800
H1263       H  0.73788488  0.37538889  0.05715089     0.14800
H1264       H  0.73366546  0.42944758  0.09876099     0.14800
H1265       H  0.73724064  0.48008409  0.48016425     0.28000
H1266       H  0.73857184  0.02835916  0.01622690     0.28000
N1267       N  0.74625787  0.04848371  0.21458479    -0.34700
N1268       N  0.74962288  0.04747936  0.28076010    -0.55300
N1269       N  0.74344089  0.46353224  0.28130834    -0.34700
N1270       N  0.74569577  0.46369620  0.21481922    -0.55300
C1271       C  0.75108935  0.08646240  0.21997612     0.28900
C1272       C  0.75229383  0.04223296  0.18492480     0.28900
C1273       C  0.75077386  0.47027854  0.31050888     0.28900
C1274       C  0.75050933  0.42594223  0.27546581     0.28900
C1275       C  0.74390403  0.08575363  0.27606762     0.37500
C1276       C  0.74639245  0.04101162  0.31086201     0.37500
C1277       C  0.73985445  0.47037258  0.18519671     0.37500
C1278       C  0.73957697  0.42592298  0.22027076     0.37500
C1279       C  0.75999698  0.10474103  0.19337408    -0.20000
C1280       C  0.76082207  0.07680812  0.17129854    -0.20000
C1281       C  0.76258537  0.43659816  0.32329719    -0.20000
C1282       C  0.76254540  0.40868923  0.30122974    -0.20000
C1283       C  0.73722269  0.10367067  0.30330333    -0.21100
C1284       C  0.73891492  0.07537953  0.32527699    -0.21100
C1285       C  0.73002165  0.43677360  0.17182410    -0.21100
C1286       C  0.72967623  0.40865919  0.19400885    -0.21100
C1287       C  0.74649723  0.10538861  0.24793441    -0.16400
C1288       C  0.74813564  0.00684775  0.16957068    -0.16400
C1289       C  0.74477541  0.40629507  0.24807634    -0.16400
C1290       C  0.75205399  0.00508366  0.32566416    -0.16400
H1291       H  0.76526332  0.13509596  0.19014429     0.16500
H1292       H  0.76665676  0.08160800  0.14784066     0.16500
H1293       H  0.77069280  0.43258862  0.34604983     0.16500
H1294       H  0.77058602  0.37905998  0.30393710     0.16500
H1295       H  0.73198182  0.13406067  0.30704965     0.14800
H1296       H  0.73526272  0.07976826  0.34911661     0.14800
H1297       H  0.72337076  0.43301897  0.14865733     0.14800
H1298       H  0.72278976  0.37895721  0.19101795     0.14800
H1299       H  0.73629442  0.02909581  0.22955162     0.28000
H1300       H  0.73121571  0.48205602  0.26719896     0.28000
C1301       C  0.75366762  0.00453357  0.35878604    -0.11400
C1302       C  0.74671549  0.50496091  0.38685042    -0.12900
C1303       C  0.74797674  0.50553154  0.10930574    -0.11400
C1304       C  0.74932413  0.00687001  0.13651433    -0.12900
C1305       C  0.49717302  0.50564204  0.40055438    -0.11400
C1306       C  0.49891548  0.50266349  0.37324156    -0.12900
C1307       C  0.49974978  0.49381976  0.12323123    -0.11400
C1308       C  0.50012604  0.49438642  0.15074390    -0.12900
C1309       C  0.75508417  0.24415151  0.36500344    -0.14500
C1310       C  0.73699389  0.26301496  0.38448218    -0.29700
H1311       H  0.77221287  0.22413616  0.37338956     0.14500
H1312       H  0.71965592  0.28274862  0.37614322     0.15100
C1313       C  0.75761896  0.26167483  0.11406510    -0.14500
C1314       C  0.73690036  0.24641265  0.13270598    -0.29700
H1315       H  0.77566333  0.27855608  0.12337781     0.14500
H1316       H  0.71887720  0.22939789  0.12351087     0.15100
C1317       C  0.87926176  0.24279267  0.25993283    -0.14500
C1318       C  0.86092827  0.26269474  0.24117093    -0.29700
H1319       H  0.86993515  0.22337757  0.27694898     0.14500
H1320       H  0.87023697  0.28221720  0.22422069     0.15100
C1321       C  0.61030753  0.24314018  0.24925909    -0.14500
C1322       C  0.62969138  0.26354738  0.26553218    -0.29700
H1323       H  0.61875036  0.22410942  0.23155783     0.14500
H1324       H  0.62139729  0.28301464  0.28300886     0.15100
C1325       C  0.88823099  0.25966170  0.00464784    -0.14500
C1326       C  0.86902859  0.24243501  0.98596318    -0.29700
H1327       H  0.87947793  0.27805549  0.02260711     0.14500
H1328       H  0.87653719  0.22127325  0.47008228     0.15100
C1329       C  0.62024008  0.23397185  0.01609823    -0.14500
C1330       C  0.63726448  0.26015697  0.00168167    -0.29700
H1331       H  0.62552877  0.29115537  0.49096342     0.14500
H1332       H  0.62671906  0.28328488  0.98846717     0.15100
C1333       C  0.50759283  0.26146160  0.39293009    -0.14500
C1334       C  0.49105106  0.23915652  0.37518428    -0.29700
H1335       H  0.52309870  0.28202469  0.38291356     0.14500
H1336       H  0.02266053  0.27448283  0.37463885     0.15100
C1337       C  0.48836811  0.25764329  0.14424479    -0.14500
C1338       C  0.50355054  0.23257958  0.12668677    -0.29700
H1339       H  0.97204068  0.27543262  0.12588422     0.14500
H1340       H  0.51735576  0.20968981  0.13674398     0.15100
Zn1341     Zn  0.97756551  0.21828416  0.97470447     1.49700
Zn1342     Zn  0.53171235  0.27510492  0.98858843     1.49400
Zn1343     Zn  0.97993814  0.27305123  0.52933745     1.49100
Zn1344     Zn  0.52890268  0.22613876  0.53522196     1.49500
O1345       O  0.50190373  0.25763770  0.50931568    -1.82200
O1346       O  0.98936138  0.22991229  0.93117463    -0.72900
O1347       O  0.52380933  0.33180604  0.99668092    -0.72700
O1348       O  0.93541490  0.26802850  0.52440244    -0.72200
O1349       O  0.52639301  0.26848205  0.94407371    -0.72900
O1350       O  0.93351575  0.23381515  0.98217620    -0.72500
O1351       O  0.98803817  0.33001464  0.52233244    -0.73100
O1352       O  0.51922669  0.23615578  0.57980916    -0.72500
O1353       O  0.57459364  0.26242666  0.99865570    -0.73200
O1354       O  0.99076141  0.25773309  0.57193596    -0.72600
O1355       O  0.57310150  0.23906921  0.52661800    -0.73100
O1356       O  0.52242155  0.16847130  0.52748538    -0.73000
O1357       O  0.98154233  0.15968816  0.98144223    -0.72800
C1358       C  0.50842884  0.24893259  0.92833052     0.79000
C1359       C  0.49813143  0.36548241  0.51093397     0.79500
C1360       C  0.91915752  0.24782067  0.50731087     0.78500
C1361       C  0.49883252  0.25673824  0.59262983     0.78800
C1362       C  0.58486529  0.26419447  0.50886232     0.80000
C1363       C  0.50511275  0.14983371  0.51012024     0.79000
Zn1364     Zn  0.97553417  0.20222118  0.77578689     1.49700
Zn1365     Zn  0.52912566  0.21196736  0.73950209     1.49400
Zn1366     Zn  0.97283081  0.27190509  0.72881299     1.49100
Zn1367     Zn  0.51988409  0.27840077  0.78857536     1.49500
O1368       O  0.99987915  0.23695405  0.75116170    -1.82200
O1369       O  0.98506732  0.14645820  0.76794637    -0.72900
O1370       O  0.52643529  0.21946187  0.69453222    -0.72700
O1371       O  0.92916590  0.26173671  0.73821955    -0.72200
O1372       O  0.52267821  0.15483852  0.74761704    -0.72900
O1373       O  0.93172662  0.21035638  0.76884699    -0.72500
O1374       O  0.97845247  0.26504449  0.68429129    -0.73100
O1375       O  0.50926268  0.33441304  0.78021312    -0.72500
O1376       O  0.57109554  0.22638285  0.75117352    -0.73200
O1377       O  0.98187831  0.32788891  0.73696887    -0.72600
O1378       O  0.56477955  0.27395011  0.78429397    -0.73100
O1379       O  0.50976099  0.26497077  0.83183494    -0.73000
O1380       O  0.98213569  0.21086893  0.81948855    -0.72800
C1381       C  0.00173277  0.12909465  0.74881750     0.79000
C1382       C  0.99549552  0.24371364  0.66813377     0.79500
C1383       C  0.91656181  0.23540484  0.75400155     0.78500
C1384       C  0.00081841  0.34465861  0.75356430     0.78800
C1385       C  0.58176686  0.25191070  0.76861998     0.80000
C1386       C  0.99946316  0.23217267  0.83444422     0.79000
Zn1387     Zn  0.72686235  0.29136700  0.97533915     1.49700
Zn1388     Zn  0.73253499  0.21919107  0.52848096     1.49400
Zn1389     Zn  0.77458122  0.22209564  0.96867312     1.49100
Zn1390     Zn  0.78143640  0.28595541  0.51918824     1.49500
O1391       O  0.75227725  0.25309841  0.49918479    -1.82200
O1392       O  0.68387545  0.28316487  0.98545748    -0.72900
O1393       O  0.74146121  0.16259620  0.52079996    -0.72700
O1394       O  0.76288491  0.23546355  0.92598892    -0.72200
O1395       O  0.68778930  0.22523054  0.52788564    -0.72900
O1396       O  0.73035025  0.28449324  0.93077100    -0.72500
O1397       O  0.76558908  0.16556367  0.97613479    -0.73100
O1398       O  0.82395506  0.27016985  0.50871546    -0.72500
O1399       O  0.74471623  0.23355513  0.57005252    -0.73200
O1400       O  0.81942261  0.22778328  0.97198840    -0.72600
O1401       O  0.77713970  0.28145929  0.56409403    -0.73100
O1402       O  0.77425757  0.34259852  0.50948978    -0.73000
O1403       O  0.73629490  0.34658572  0.98363873    -0.73200
C1404       C  0.67013152  0.24819128  0.51385253     0.79000
C1405       C  0.75400524  0.14512044  0.49871418     0.79500
C1406       C  0.74529771  0.26094526  0.91448580     0.78500
C1407       C  0.83500231  0.24607793  0.48981781     0.78800
C1408       C  0.76166475  0.25926714  0.58089629     0.80000
C1409       C  0.75212137  0.36066374  0.49767251     0.79000
Zn1410     Zn  0.77820239  0.21527459  0.76964856     1.49700
Zn1411     Zn  0.72328855  0.27830329  0.77492666     1.49400
Zn1412     Zn  0.77165138  0.28309751  0.72094948     1.49100
Zn1413     Zn  0.72451728  0.21363264  0.72397591     1.49500
O1414       O  0.74936655  0.24790549  0.74756157    -1.82200
O1415       O  0.77266685  0.22305994  0.81386368    -0.72900
O1416       O  0.72829373  0.33649757  0.76771730    -0.72700
O1417       O  0.81639096  0.27673237  0.72583610    -0.72200
O1418       O  0.73508043  0.26606267  0.81799835    -0.72900
O1419       O  0.82080256  0.22847898  0.75921734    -0.72500
O1420       O  0.76105595  0.33907476  0.72962557    -0.73100
O1421       O  0.72968368  0.22418781  0.68029815    -0.72500
O1422       O  0.67899266  0.26512882  0.76977093    -0.73200
O1423       O  0.76265359  0.27190909  0.67749173    -0.72600
O1424       O  0.68115934  0.22051926  0.73379740    -0.73100
O1425       O  0.73473038  0.15728357  0.73032373    -0.73000
O1426       O  0.77274705  0.15818051  0.76232535    -0.72800
C1427       C  0.75494017  0.24373548  0.82979125     0.79000
C1428       C  0.74399233  0.35588842  0.74884218     0.79500
C1429       C  0.83247612  0.25368299  0.74168301     0.78500
C1430       C  0.74567245  0.24745281  0.66503949     0.78800
C1431       C  0.66621935  0.24136332  0.75221420     0.80000
C1432       C  0.75429489  0.13977004  0.74630547     0.79000
N1433       N  0.49599780  0.46471916  0.54464613    -0.34700
N1434       N  0.50634152  0.04863142  0.54418289    -0.55300
N1435       N  0.49681735  0.03335376  0.97676480    -0.34700
N1436       N  0.50063391  0.44909925  0.97900830    -0.55300
C1437       C  0.50391870  0.47111137  0.57362216     0.28900
C1438       C  0.50316565  0.42735070  0.53848986     0.28900
C1439       C  0.50251672  0.07124814  0.98181196     0.28900
C1440       C  0.50482460  0.02589266  0.94773168     0.28900
C1441       C  0.50086607  0.04219338  0.57404000     0.37500
C1442       C  0.50166954  0.08709711  0.53899892     0.37500
C1443       C  0.49811730  0.41068518  0.98490881     0.37500
C1444       C  0.49516188  0.45407847  0.94909895     0.37500
C1445       C  0.51631549  0.43745691  0.58596908    -0.20000
C1446       C  0.51587631  0.40977863  0.56376194    -0.20000
C1447       C  0.51416802  0.08801359  0.95571569    -0.20000
C1448       C  0.51562863  0.05938801  0.93429840    -0.20000
C1449       C  0.49303997  0.07680812  0.58791615    -0.21100
C1450       C  0.49343900  0.10516542  0.56580160    -0.21100
C1451       C  0.49102839  0.39125074  0.95858111    -0.21100
C1452       C  0.48933494  0.41870450  0.93592315    -0.21100
C1453       C  0.49823967  0.50571223  0.58961724    -0.16400
C1454       C  0.49673047  0.40820213  0.51129759    -0.16400
C1455       C  0.49769838  0.48970643  0.93323622    -0.16400
C1456       C  0.50589058  0.10646450  0.51075792    -0.16400
H1457       H  0.52489248  0.43331570  0.60855636     0.16500
H1458       H  0.52383439  0.38004716  0.56604806     0.16500
H1459       H  0.52123189  0.11770338  0.95246251     0.16500
H1460       H  0.52430449  0.06271959  0.91166169     0.16500
H1461       H  0.48771242  0.08126540  0.61150110     0.14800
H1462       H  0.48824125  0.13563068  0.56918326     0.14800
H1463       H  0.48766888  0.36042570  0.95580771     0.14800
H1464       H  0.48468931  0.41315973  0.91241214     0.14800
H1465       H  0.48314387  0.48320656  0.53107049     0.28000
H1466       H  0.48529075  0.01484212  0.99129210     0.28000
N1467       N  0.49762250  0.45123500  0.79345927    -0.34700
N1468       N  0.50160089  0.03533445  0.79457149    -0.55300
N1469       N  0.50238126  0.03744628  0.72834525    -0.34700
N1470       N  0.49417746  0.45386329  0.72699134    -0.55300
C1471       C  0.49177426  0.45745238  0.82322839     0.28900
C1472       C  0.48943059  0.41447314  0.78724967     0.28900
C1473       C  0.49739212  0.07540323  0.73455631     0.28900
C1474       C  0.49554134  0.03233095  0.69887269     0.28900
C1475       C  0.50634921  0.02802629  0.82429065     0.37500
C1476       C  0.50715814  0.07344615  0.79001319     0.37500
C1477       C  0.49840020  0.41520603  0.73136510     0.37500
C1478       C  0.49971665  0.46106521  0.69728322     0.37500
C1479       C  0.47979749  0.42422248  0.83604959    -0.20000
C1480       C  0.47821452  0.39719290  0.81339510    -0.20000
C1481       C  0.48730291  0.09458502  0.70875342    -0.20000
C1482       C  0.48618194  0.06741002  0.68626184    -0.20000
C1483       C  0.51478359  0.06170908  0.83857855    -0.21100
C1484       C  0.51529230  0.09048275  0.81692889    -0.21100
C1485       C  0.50655087  0.39787646  0.70422152    -0.21100
C1486       C  0.50709559  0.42684557  0.68267187    -0.21100
C1487       C  0.49838517  0.49160872  0.83937012    -0.16400
C1488       C  0.49376448  0.39522320  0.75921915    -0.16400
C1489       C  0.49659335  0.49782995  0.68301022    -0.16400
C1490       C  0.50306999  0.09369174  0.76238385    -0.16400
H1491       H  0.47285316  0.41987998  0.85929563     0.16500
H1492       H  0.46979344  0.36803179  0.81598077     0.16500
H1493       H  0.48147239  0.12508174  0.70629315     0.16500
H1494       H  0.47922121  0.07288567  0.66326023     0.16500
H1495       H  0.51969278  0.06539373  0.86214703     0.14800
H1496       H  0.52071966  0.12058763  0.82066868     0.14800
H1497       H  0.51174369  0.36757657  0.70015640     0.14800
H1498       H  0.51239505  0.42308616  0.65900952     0.14800
H1499       H  0.50971484  0.46922475  0.77903738     0.28000
H1500       H  0.51311833  0.01734794  0.74236179     0.28000
N1501       N  0.75264283  0.46274872  0.96577574    -0.34700
N1502       N  0.75165200  0.04684523  0.96385427    -0.55300
N1503       N  0.75525368  0.04363495  0.53138345    -0.34700
N1504       N  0.75039812  0.46048239  0.53126637    -0.55300
C1505       C  0.75798577  0.46947877  0.93601269     0.28900
C1506       C  0.76090749  0.42552935  0.97168257     0.28900
C1507       C  0.76102978  0.08151355  0.52569803     0.28900
C1508       C  0.76237850  0.03626340  0.56069415     0.28900
C1509       C  0.74541695  0.04009148  0.93439763     0.37500
C1510       C  0.74572211  0.08497578  0.96875222     0.37500
C1511       C  0.74767665  0.42198870  0.52624926     0.37500
C1512       C  0.74613131  0.46557169  0.56133874     0.37500
C1513       C  0.76978714  0.43614650  0.92288657    -0.20000
C1514       C  0.77164017  0.40839263  0.94538532    -0.20000
C1515       C  0.77210637  0.09825658  0.55172154    -0.20000
C1516       C  0.77265583  0.06983038  0.57379972    -0.20000
C1517       C  0.73565147  0.07414021  0.92055033    -0.21100
C1518       C  0.73583300  0.10253165  0.94221421    -0.21100
C1519       C  0.74206835  0.40257503  0.55326689    -0.21100
C1520       C  0.74116988  0.43013028  0.57542147    -0.21100
C1521       C  0.75044483  0.50400479  0.92014462    -0.16400
C1522       C  0.75146691  0.40361577  0.49795321    -0.16400
C1523       C  0.74866859  0.50129836  0.57655361    -0.16400
C1524       C  0.75471142  0.10186528  0.49830871    -0.16400
H1525       H  0.77626726  0.43214949  0.89952620     0.16500
H1526       H  0.77960654  0.37877569  0.94259797     0.16500
H1527       H  0.77909597  0.12792131  0.55467844     0.16500
H1528       H  0.78007392  0.07342006  0.59678357     0.16500
H1529       H  0.72894501  0.07815717  0.89735826     0.14800
H1530       H  0.72918518  0.13259755  0.93877707     0.14800
H1531       H  0.73913456  0.37169816  0.55675532     0.14800
H1532       H  0.73764803  0.42453461  0.59920476     0.14800
H1533       H  0.74053732  0.48077253  0.98025852     0.28000
H1534       H  0.74391190  0.02521016  0.51709132     0.28000
N1535       N  0.75319357  0.03970618  0.71447477    -0.34700
N1536       N  0.75083204  0.03985424  0.78065412    -0.55300
N1537       N  0.74292942  0.45673982  0.78224319    -0.34700
N1538       N  0.74571973  0.45641600  0.71564971    -0.55300
C1539       C  0.76083834  0.07673367  0.72016458     0.28900
C1540       C  0.76113771  0.03216973  0.68547138     0.28900
C1541       C  0.74966243  0.46325163  0.81164955     0.28900
C1542       C  0.74783628  0.41845288  0.77691188     0.28900
C1543       C  0.74790569  0.07840321  0.77506809     0.37500
C1544       C  0.74390750  0.03456111  0.81024534     0.37500
C1545       C  0.74088630  0.46312619  0.68579959     0.37500
C1546       C  0.73864953  0.41893668  0.72115969     0.37500
C1547       C  0.77377335  0.09303732  0.69452133    -0.20000
C1548       C  0.77408002  0.06482972  0.67265509    -0.20000
C1549       C  0.75851830  0.42859570  0.82524275    -0.20000
C1550       C  0.75754759  0.40041593  0.80336784    -0.20000
C1551       C  0.73917952  0.09760196  0.80119213    -0.21100
C1552       C  0.73680472  0.06985143  0.82344260    -0.21100
C1553       C  0.73059049  0.42979452  0.67235082    -0.21100
C1554       C  0.72921388  0.40180548  0.69466603    -0.21100
C1555       C  0.75459574  0.09689654  0.74722066    -0.16400
C1556       C  0.75463173  0.99779824  0.66973973    -0.16400
C1557       C  0.74278530  0.39914636  0.74915240    -0.16400
C1558       C  0.74616416  0.99877199  0.82596548    -0.16400
H1559       H  0.78191121  0.12232469  0.69177753     0.16500
H1560       H  0.78250049  0.06819550  0.64982957     0.16500
H1561       H  0.76511884  0.42402941  0.84846006     0.16500
H1562       H  0.76341971  0.37007462  0.80668941     0.16500
H1563       H  0.73516364  0.12843799  0.80406482     0.14800
H1564       H  0.73050880  0.07510644  0.84663618     0.14800
H1565       H  0.72471987  0.42596340  0.64896053     0.14800
H1566       H  0.72215791  0.37216297  0.69165261     0.14800
H1567       H  0.73990183  0.02250652  0.72836231     0.28000
H1568       H  0.73278983  0.47643740  0.76744614     0.28000
C1569       C  0.74706586  0.99982512  0.85910990    -0.11400
C1570       C  0.74889728  0.50248329  0.88714050    -0.12900
C1571       C  0.74865040  0.50054996  0.60969432    -0.11400
C1572       C  0.75662976  0.99851602  0.63669530    -0.12900
C1573       C  0.49786685  0.48956723  0.90006290    -0.11400
C1574       C  0.49804879  0.49020161  0.87253629    -0.12900
C1575       C  0.49783493  0.50365141  0.62263635    -0.11400
C1576       C  0.49723377  0.50049979  0.65000151    -0.12900
C1577       C  0.75795268  0.24115507  0.86276631    -0.14500
C1578       C  0.74184262  0.26366336  0.88153126    -0.29700
H1579       H  0.77417771  0.22033798  0.87179421     0.14500
H1580       H  0.72589095  0.28486555  0.87254883     0.15100
C1581       C  0.76311151  0.26399664  0.61376163    -0.14500
C1582       C  0.74444478  0.24472434  0.63212437    -0.29700
H1583       H  0.77939467  0.28376801  0.62291554     0.14500
H1584       H  0.72815348  0.22508487  0.62279307     0.15100
C1585       C  0.88366991  0.23313565  0.75560457    -0.14500
C1586       C  0.86537239  0.25663471  0.73955696    -0.29700
H1587       H  0.87425742  0.21105799  0.77044367     0.14500
H1588       H  0.87468438  0.27855478  0.72452086     0.15100
C1589       C  0.61455755  0.25676025  0.77049870    -0.14500
C1590       C  0.63341277  0.23692784  0.75234221    -0.29700
H1591       H  0.62321826  0.27759884  0.78639715     0.14500
H1592       H  0.62443016  0.21644310  0.73633256     0.15100
C1593       C  0.88644280  0.25444788  0.50847973    -0.14500
C1594       C  0.86774406  0.23962606  0.48804471    -0.29700
H1595       H  0.87759670  0.27287140  0.52637075     0.14500
H1596       H  0.87759107  0.22371900  0.96812580     0.15100
C1597       C  0.61760880  0.26829718  0.50600146    -0.14500
C1598       C  0.63758459  0.24464922  0.51954844    -0.29700
H1599       H  0.63061778  0.21062362  0.02920549     0.14500
H1600       H  0.62993459  0.22161547  0.53455134     0.15100
C1601       C  0.50990649  0.25339228  0.89524365    -0.14500
C1602       C  0.48988762  0.23708719  0.87702268    -0.29700
H1603       H  0.52769248  0.27099261  0.88570202     0.14500
H1604       H  0.98082053  0.21021280  0.87728096     0.15100
C1605       C  0.51391219  0.23834936  0.64471798    -0.14500
C1606       C  0.49583182  0.25797298  0.62577042    -0.29700
H1607       H  0.97661686  0.26794902  0.62621276     0.14500
H1608       H  0.47783176  0.27607919  0.63488221     0.15100
Zn1609     Zn  0.97415287  0.70658036  0.47955605     1.49700
Zn1610     Zn  0.53137007  0.78765762  0.48881174     1.49400
Zn1611     Zn  0.97936705  0.77789142  0.02932159     1.49100
Zn1612     Zn  0.52660931  0.70441198  0.03526373     1.49500
O1613       O  0.50257726  0.74152589  0.01164193    -1.82200
O1614       O  0.97800632  0.71330312  0.43468300    -0.72900
O1615       O  0.52523898  0.84485738  0.49608904    -0.72700
O1616       O  0.93531136  0.77097066  0.02245946    -0.72200
O1617       O  0.52751674  0.77972595  0.44413941    -0.72900
O1618       O  0.93080214  0.71849784  0.49016442    -0.72500
O1619       O  0.98702539  0.83531822  0.02339045    -0.73100
O1620       O  0.51942595  0.71244216  0.07906509    -0.72500
O1621       O  0.57365020  0.77305236  0.50007032    -0.73200
O1622       O  0.98827037  0.76283222  0.07225899    -0.72600
O1623       O  0.57100151  0.70983094  0.02857588    -0.73100
O1624       O  0.51577266  0.64964780  0.02684883    -0.73000
O1625       O  0.98378055  0.65047791  0.48850543    -0.72800
C1626       C  0.51036529  0.75908728  0.42832538     0.79000
C1627       C  0.50466344  0.84959645  0.01388569     0.79500
C1628       C  0.91990957  0.75341706  0.00289287     0.78500
C1629       C  0.50317258  0.73583025  0.09422400     0.78800
C1630       C  0.58603049  0.73506046  0.01412933     0.80000
C1631       C  0.49719353  0.63388656  0.00934458     0.79000
Zn1632     Zn  0.97587600  0.71433576  0.27867738     1.49700
Zn1633     Zn  0.52017484  0.71589566  0.23277480     1.49400
Zn1634     Zn  0.97001971  0.78031315  0.22852110     1.49100
Zn1635     Zn  0.52489410  0.77741785  0.28649366     1.49500
O1636       O  0.99849340  0.74720975  0.25066547    -1.82200
O1637       O  0.98508746  0.65741642  0.27189464    -0.72900
O1638       O  0.50900522  0.72897779  0.19017621    -0.72700
O1639       O  0.92717717  0.76706789  0.23769759    -0.72200
O1640       O  0.51375880  0.65860465  0.23975535    -0.72900
O1641       O  0.93111564  0.72106832  0.27300844    -0.72500
O1642       O  0.97552162  0.77364982  0.18426480    -0.73100
O1643       O  0.51872894  0.83575715  0.28069448    -0.72500
O1644       O  0.56423379  0.72454152  0.23690320    -0.73200
O1645       O  0.97620104  0.83688920  0.23663259    -0.72600
O1646       O  0.56855201  0.76511946  0.27541910    -0.73100
O1647       O  0.51705184  0.76421677  0.33070321    -0.73000
O1648       O  0.98608841  0.72779364  0.32153626    -0.72800
C1649       C  0.00006933  0.63932893  0.25167634     0.79000
C1650       C  0.99183622  0.75115563  0.16838216     0.79500
C1651       C  0.91525787  0.74268514  0.25573361     0.78500
C1652       C  0.99644503  0.85491500  0.25060224     0.78800
C1653       C  0.58025190  0.74411154  0.25466882     0.80000
C1654       C  0.00483908  0.75087800  0.33303046     0.79000
Zn1655     Zn  0.72695157  0.79104170  0.47517631     1.49700
Zn1656     Zn  0.72753401  0.72321057  0.02419024     1.49400
Zn1657     Zn  0.77286674  0.71883178  0.46913122     1.49100
Zn1658     Zn  0.78131202  0.78472250  0.01946273     1.49500
O1659       O  0.75208505  0.75501123  0.99671823    -1.82200
O1660       O  0.68368823  0.78582798  0.48600832    -0.72900
O1661       O  0.73528667  0.66591392  0.01689992    -0.72700
O1662       O  0.76270596  0.73353259  0.42612947    -0.72200
O1663       O  0.68312515  0.73315940  0.01754876    -0.72900
O1664       O  0.73056928  0.78316482  0.43101017    -0.72500
O1665       O  0.76169846  0.66314162  0.47741018    -0.73100
O1666       O  0.82392791  0.76902386  0.00818926    -0.72500
O1667       O  0.73685326  0.73563724  0.06789420    -0.73200
O1668       O  0.81785312  0.72036680  0.47396120    -0.72600
O1669       O  0.77541843  0.77563348  0.06397922    -0.73100
O1670       O  0.77560148  0.84287763  0.01294342    -0.73000
O1671       O  0.73853205  0.84591797  0.48234607    -0.73200
C1672       C  0.66900333  0.75824840  0.00152753     0.79000
C1673       C  0.74973244  0.64734396  0.99651442     0.79500
C1674       C  0.74564652  0.75976091  0.41472689     0.78500
C1675       C  0.83504109  0.74595279  0.98850690     0.78800
C1676       C  0.75669119  0.75673836  0.07989811     0.80000
C1677       C  0.75591673  0.86275697  0.99864000     0.79000
Zn1678     Zn  0.77632213  0.72005608  0.26842357     1.49700
Zn1679     Zn  0.72710048  0.78844550  0.27683091     1.49400
Zn1680     Zn  0.77032829  0.78696485  0.21885810     1.49100
Zn1681     Zn  0.71817093  0.72377923  0.22696609     1.49500
O1682       O  0.74792621  0.75495130  0.24768999    -1.82200
O1683       O  0.77236684  0.72530198  0.31302424    -0.72900
O1684       O  0.73557175  0.84514571  0.26878821    -0.72700
O1685       O  0.81516151  0.77883013  0.22344780    -0.72200
O1686       O  0.73953545  0.77389276  0.31897841    -0.72900
O1687       O  0.81919509  0.73178213  0.25792558    -0.72500
O1688       O  0.76206549  0.84439896  0.22600409    -0.73100
O1689       O  0.72197794  0.73082115  0.18185128    -0.72500
O1690       O  0.68219582  0.78224704  0.27553484    -0.73200
O1691       O  0.75931658  0.77245885  0.17616473    -0.72600
O1692       O  0.67581169  0.73738140  0.24050141    -0.73100
O1693       O  0.72523489  0.66664990  0.23485372    -0.73000
O1694       O  0.76814210  0.66408051  0.26007499    -0.72800
C1695       C  0.75706365  0.74784996  0.32983082     0.79000
C1696       C  0.74890857  0.86292481  0.24729491     0.79500
C1697       C  0.83108346  0.75625339  0.23992831     0.78500
C1698       C  0.73983440  0.74999758  0.16508468     0.78800
C1699       C  0.66518058  0.76086719  0.26012975     0.80000
C1700       C  0.74633703  0.64747972  0.24748961     0.79000
N1701       N  0.49906980  0.95069734  0.04481206    -0.34700
N1702       N  0.49691471  0.53397278  0.04406667    -0.55300
N1703       N  0.49374130  0.54928852  0.47830342    -0.34700
N1704       N  0.50855534  0.96450178  0.47798564    -0.55300
C1705       C  0.50481470  0.95846089  0.07420669     0.28900
C1706       C  0.50697535  0.91312769  0.04003198     0.28900
C1707       C  0.50110053  0.58649628  0.48391322     0.28900
C1708       C  0.50045329  0.54216645  0.44883794     0.28900
C1709       C  0.49333010  0.52863752  0.07429215     0.37500
C1710       C  0.49156109  0.57213570  0.03840537     0.37500
C1711       C  0.50383504  0.92626420  0.48307246     0.37500
C1712       C  0.50413118  0.97064979  0.44806966     0.37500
C1713       C  0.51635444  0.92536053  0.08816980    -0.20000
C1714       C  0.51766213  0.89675978  0.06668864    -0.20000
C1715       C  0.51242793  0.60329139  0.45762189    -0.20000
C1716       C  0.51194975  0.57535183  0.43553888    -0.20000
C1717       C  0.48580238  0.56357496  0.08780580    -0.21100
C1718       C  0.48458500  0.59105374  0.06517448    -0.21100
C1719       C  0.49668737  0.90807244  0.45633258    -0.21100
C1720       C  0.49701730  0.93613239  0.43424882    -0.21100
C1721       C  0.49863678  0.99400891  0.08905085    -0.16400
C1722       C  0.50356840  0.89266391  0.01267289    -0.16400
C1723       C  0.50816717  0.00639844  0.43274136    -0.16400
C1724       C  0.49523573  0.59084352  0.00992086    -0.16400
H1725       H  0.52343251  0.92217981  0.11132743     0.16500
H1726       H  0.52575196  0.86729423  0.07029252     0.16500
H1727       H  0.52041685  0.63260045  0.45460407     0.16500
H1728       H  0.51936191  0.57906725  0.41241262     0.16500
H1729       H  0.48206135  0.56894629  0.11150895     0.14800
H1730       H  0.47952027  0.62161450  0.06823758     0.14800
H1731       H  0.49178281  0.87773073  0.45297733     0.14800
H1732       H  0.49257091  0.93149261  0.41074100     0.14800
H1733       H  0.48747133  0.96854616  0.02971809     0.28000
H1734       H  0.48199015  0.53121096  0.49299068     0.28000
N1735       N  0.50827933  0.95730734  0.29539564    -0.34700
N1736       N  0.49997695  0.54061368  0.29415746    -0.55300
N1737       N  0.50207665  0.53877740  0.22782554    -0.34700
N1738       N  0.50274700  0.95532662  0.22905565    -0.55300
C1739       C  0.50274240  0.96569591  0.32487745     0.28900
C1740       C  0.50075581  0.91977685  0.29115319     0.28900
C1741       C  0.49498521  0.57660640  0.23267065     0.28900
C1742       C  0.49538614  0.53100780  0.19864998     0.28900
C1743       C  0.50557324  0.53531323  0.32396930     0.37500
C1744       C  0.50492764  0.57854109  0.28804165     0.37500
C1745       C  0.50717773  0.91707261  0.23501358     0.37500
C1746       C  0.50619013  0.96000858  0.19875221     0.37500
C1747       C  0.49181695  0.93301352  0.33940452    -0.20000
C1748       C  0.49066923  0.90402914  0.31825608    -0.20000
C1749       C  0.48382387  0.59308744  0.20624958    -0.20000
C1750       C  0.48410584  0.56433923  0.18485078    -0.20000
C1751       C  0.51410826  0.56995276  0.33676306    -0.21100
C1752       C  0.51381199  0.59729608  0.31403528    -0.21100
C1753       C  0.51343374  0.89745447  0.20837276    -0.21100
C1754       C  0.51271191  0.92460728  0.18548786    -0.21100
C1755       C  0.50819425  0.00167941  0.33905877    -0.16400
C1756       C  0.50339026  0.89902775  0.26370395    -0.16400
C1757       C  0.50105087  0.99521586  0.18275681    -0.16400
C1758       C  0.49957818  0.59707237  0.25986201    -0.16400
H1759       H  0.48451174  0.93050690  0.36254381     0.16500
H1760       H  0.48278241  0.87485606  0.32231280     0.16500
H1761       H  0.47611470  0.62272634  0.20271333     0.16500
H1762       H  0.47645772  0.56755884  0.16189766     0.16500
H1763       H  0.51985470  0.57505653  0.36004557     0.14800
H1764       H  0.51937448  0.62758380  0.31648946     0.14800
H1765       H  0.51772024  0.86666196  0.20557779     0.14800
H1766       H  0.51605414  0.91873451  0.16179132     0.14800
H1767       H  0.51917846  0.97493288  0.27973203     0.28000
H1768       H  0.51377530  0.52059876  0.24261645     0.28000
N1769       N  0.75787336  0.96179880  0.46438948    -0.34700
N1770       N  0.74710998  0.54582311  0.46522043    -0.55300
N1771       N  0.74865095  0.54678263  0.03079518    -0.34700
N1772       N  0.75475429  0.96322355  0.03166209    -0.55300
C1773       C  0.76263576  0.96919641  0.43458135     0.28900
C1774       C  0.76524536  0.92409742  0.46947495     0.28900
C1775       C  0.75480700  0.58446823  0.02477789     0.28900
C1776       C  0.75461816  0.54013008  0.06043026     0.28900
C1777       C  0.74165046  0.53992856  0.43549197     0.37500
C1778       C  0.74094654  0.58379167  0.47056467     0.37500
C1779       C  0.75200877  0.92463670  0.02714842     0.37500
C1780       C  0.74934193  0.96922685  0.06144131     0.37500
C1781       C  0.77313249  0.93572192  0.42063460    -0.20000
C1782       C  0.77472404  0.90723895  0.44261664    -0.20000
C1783       C  0.76494862  0.60185285  0.05092412    -0.20000
C1784       C  0.76461363  0.57395778  0.07339546    -0.20000
C1785       C  0.73203937  0.57426628  0.42200152    -0.21100
C1786       C  0.73150944  0.60197107  0.44410315    -0.21100
C1787       C  0.74520006  0.90602741  0.05421108    -0.21100
C1788       C  0.74360329  0.93425279  0.07589221    -0.21100
C1789       C  0.75564073  0.00451965  0.41943187    -0.16400
C1790       C  0.75653853  0.90571606  0.99918640    -0.16400
C1791       C  0.75167137  0.00540494  0.07602625    -0.16400
C1792       C  0.74965250  0.60410825  0.99688781    -0.16400
H1793       H  0.77876980  0.93202704  0.39704801     0.16500
H1794       H  0.78178656  0.87737818  0.43915461     0.16500
H1795       H  0.77179404  0.63161433  0.05370087     0.16500
H1796       H  0.77120016  0.57809887  0.09655717     0.16500
H1797       H  0.72579500  0.57889156  0.39875555     0.14800
H1798       H  0.72479817  0.63206089  0.44094257     0.14800
H1799       H  0.74186152  0.87529497  0.05803533     0.14800
H1800       H  0.73912896  0.92940486  0.09959924     0.14800
H1801       H  0.74676643  0.97984568  0.47960346     0.28000
H1802       H  0.73772632  0.52801721  0.01644187     0.28000
N1803       N  0.74362320  0.54766353  0.21461793    -0.34700
N1804       N  0.74542112  0.54722067  0.28100077    -0.55300
N1805       N  0.74877409  0.96333304  0.28064963    -0.34700
N1806       N  0.74967340  0.96414108  0.21430103    -0.55300
C1807       C  0.74983829  0.58526756  0.22000036     0.28900
C1808       C  0.74994086  0.54096460  0.18507345     0.28900
C1809       C  0.75665858  0.96988887  0.30973270     0.28900
C1810       C  0.75534781  0.92563268  0.27457882     0.28900
C1811       C  0.74109778  0.58565215  0.27587242     0.37500
C1812       C  0.74102986  0.54132957  0.31101526     0.37500
C1813       C  0.74317095  0.97128284  0.18487931     0.37500
C1814       C  0.74352680  0.92630261  0.21958451     0.37500
C1815       C  0.75987275  0.60283216  0.19352398    -0.20000
C1816       C  0.75995280  0.57486131  0.17152365    -0.20000
C1817       C  0.76829748  0.93591123  0.32224337    -0.20000
C1818       C  0.76756205  0.90805918  0.30012051    -0.20000
C1819       C  0.73407602  0.60427320  0.30273331    -0.21100
C1820       C  0.73405406  0.57619143  0.32493776    -0.21100
C1821       C  0.73284369  0.93794344  0.17149794    -0.21100
C1822       C  0.73293638  0.90949557  0.19343777    -0.21100
C1823       C  0.74541112  0.60467678  0.24774984    -0.16400
C1824       C  0.74514979  0.50573687  0.16977335    -0.16400
C1825       C  0.74908911  0.90624550  0.24715588    -0.16400
C1826       C  0.74574327  0.50549080  0.32620065    -0.16400
H1827       H  0.76639584  0.63275544  0.19033310     0.16500
H1828       H  0.76651603  0.57912864  0.14821383     0.16500
H1829       H  0.77656900  0.93159152  0.34491349     0.16500
H1830       H  0.77523104  0.87824502  0.30264830     0.16500
H1831       H  0.72980945  0.63497964  0.30608376     0.14800
H1832       H  0.72983147  0.58107730  0.34861488     0.14800
H1833       H  0.72542014  0.93464948  0.14852677     0.14800
H1834       H  0.72580224  0.87990510  0.19040281     0.14800
H1835       H  0.73269639  0.52899014  0.22945550     0.28000
H1836       H  0.73649078  0.98210397  0.26680756     0.28000
C1837       C  0.74645443  0.50504357  0.35933872    -0.11400
C1838       C  0.75457140  0.00474458  0.38628832    -0.12900
C1839       C  0.75053360  0.00633895  0.10907524    -0.11400
C1840       C  0.74650434  0.50570791  0.13673167    -0.12900
C1841       C  0.50864044  0.00595777  0.39958926    -0.11400
C1842       C  0.50849380  0.00361775  0.37215413    -0.12900
C1843       C  0.49918040  0.99447896  0.12217605    -0.11400
C1844       C  0.49985815  0.99461389  0.14966289    -0.12900
C1845       C  0.75976316  0.74296842  0.36267668    -0.14500
C1846       C  0.74306986  0.76407614  0.38186258    -0.29700
H1847       H  0.77559394  0.72130625  0.37120725     0.14500
H1848       H  0.72727319  0.78575630  0.37327695     0.15100
C1849       C  0.75827620  0.76052297  0.11303376    -0.14500
C1850       C  0.73789552  0.74528892  0.13200548    -0.29700
H1851       H  0.77657703  0.77723634  0.12202115     0.14500
H1852       H  0.71963341  0.72839027  0.12315622     0.15100
C1853       C  0.88234980  0.73892189  0.25678938    -0.14500
C1854       C  0.86403354  0.75928824  0.23826069    -0.29700
H1855       H  0.87299105  0.71878625  0.27326096     0.14500
H1856       H  0.87338210  0.77948976  0.22183044     0.15100
C1857       C  0.61307648  0.74174877  0.25032373    -0.14500
C1858       C  0.63244466  0.76362027  0.26552559    -0.29700
H1859       H  0.62152081  0.72156185  0.23341771     0.14500
H1860       H  0.62414940  0.78410587  0.28228040     0.15100
C1861       C  0.88693842  0.75801206  0.00471875    -0.14500
C1862       C  0.86797295  0.74091830  0.98567223    -0.29700
H1863       H  0.87798345  0.77624541  0.02267971     0.14500
H1864       H  0.87611267  0.71228424  0.47299106     0.15100
C1865       C  0.61902943  0.73306884  0.01550355    -0.14500
C1866       C  0.63603149  0.75945692  0.00123419    -0.29700
H1867       H  0.62760558  0.72164068  0.53465539     0.14500
H1868       H  0.62541813  0.78269891  0.98819681     0.15100
C1869       C  0.51351174  0.76099583  0.39514078    -0.14500
C1870       C  0.49576825  0.74069487  0.37700269    -0.29700
H1871       H  0.53035057  0.77999087  0.38547948     0.14500
H1872       H  0.02323510  0.77437898  0.37482537     0.15100
C1873       C  0.49001922  0.75801262  0.14526850    -0.14500
C1874       C  0.50466447  0.73305066  0.12722350    -0.29700
H1875       H  0.97417084  0.77608082  0.12617298     0.14500
H1876       H  0.51868756  0.71010135  0.13688307     0.15100
Zn1877     Zn  0.97628025  0.71779164  0.97448877     1.49700
Zn1878     Zn  0.53022265  0.77451272  0.98911742     1.49400
Zn1879     Zn  0.97896933  0.77234429  0.52907408     1.49100
Zn1880     Zn  0.52396397  0.72169821  0.53915239     1.49500
O1881       O  0.50220750  0.75658903  0.51134609    -1.82200
O1882       O  0.98777638  0.73005615  0.93099382    -0.72900
O1883       O  0.52275207  0.83134797  0.99659068    -0.72700
O1884       O  0.93469827  0.76426018  0.52493145    -0.72200
O1885       O  0.52459364  0.76766909  0.94492547    -0.72900
O1886       O  0.93233320  0.73272237  0.98235587    -0.72500
O1887       O  0.98549535  0.82949717  0.52147430    -0.73100
O1888       O  0.51290766  0.73363725  0.58238701    -0.72500
O1889       O  0.57321771  0.76187466  0.99873533    -0.73200
O1890       O  0.99031992  0.75878875  0.57177953    -0.72600
O1891       O  0.56896635  0.72634345  0.53466077    -0.73100
O1892       O  0.51399541  0.66592361  0.53117120    -0.73000
O1893       O  0.98045921  0.65915773  0.98075498    -0.72800
C1894       C  0.50635221  0.74861574  0.92918885     0.79000
C1895       C  0.50625699  0.86410461  0.51173668     0.79500
C1896       C  0.91887636  0.74268431  0.50845141     0.78500
C1897       C  0.49466231  0.75791003  0.59437844     0.78800
C1898       C  0.58520303  0.74820349  0.51822141     0.80000
C1899       C  0.49800539  0.64923684  0.51157996     0.79000
Zn1900     Zn  0.97375901  0.70328610  0.77551649     1.49700
Zn1901     Zn  0.52705266  0.71156785  0.73980943     1.49400
Zn1902     Zn  0.97140581  0.77290615  0.72861145     1.49100
Zn1903     Zn  0.51933551  0.77765695  0.78921135     1.49500
O1904       O  0.99835359  0.73772406  0.75095237    -1.82200
O1905       O  0.98310127  0.64733539  0.76752265    -0.72900
O1906       O  0.52207604  0.71864713  0.69523740    -0.72700
O1907       O  0.92757682  0.76290259  0.73730872    -0.72200
O1908       O  0.52106298  0.65444515  0.74814242    -0.72900
O1909       O  0.92990967  0.71222199  0.76864332    -0.72500
O1910       O  0.97760574  0.76701213  0.68411318    -0.73100
O1911       O  0.51005346  0.83405940  0.78023214    -0.72500
O1912       O  0.56958162  0.72605533  0.74965546    -0.73200
O1913       O  0.98042553  0.82846879  0.73744830    -0.72600
O1914       O  0.56407141  0.77188693  0.78434954    -0.73100
O1915       O  0.50885458  0.76472876  0.83264776    -0.73000
O1916       O  0.98065188  0.71166399  0.81924742    -0.72800
C1917       C  0.99993547  0.62991731  0.74853771     0.79000
C1918       C  0.99454478  0.74549618  0.66800767     0.79500
C1919       C  0.91484432  0.73699555  0.75339733     0.78500
C1920       C  0.99966026  0.84488612  0.75388869     0.78800
C1921       C  0.58067015  0.75071349  0.76759111     0.80000
C1922       C  0.99825782  0.73251260  0.83427182     0.79000
Zn1923     Zn  0.72577362  0.79136669  0.97498689     1.49700
Zn1924     Zn  0.72681003  0.72381220  0.52478378     1.49400
Zn1925     Zn  0.77338135  0.72148248  0.96783205     1.49100
Zn1926     Zn  0.78224952  0.78312512  0.51887995     1.49500
O1927       O  0.75217829  0.75389511  0.49708883    -1.82200
O1928       O  0.68266573  0.78281399  0.98510299    -0.72900
O1929       O  0.73260129  0.66561966  0.51837929    -0.72700
O1930       O  0.76136383  0.73516547  0.92510373    -0.72200
O1931       O  0.68252293  0.73719699  0.51934467    -0.72900
O1932       O  0.72932645  0.78474082  0.93032751    -0.72500
O1933       O  0.76443990  0.66497541  0.97590092    -0.73100
O1934       O  0.82401247  0.76372687  0.51014684    -0.72500
O1935       O  0.73770995  0.73683394  0.56754555    -0.73200
O1936       O  0.81837946  0.72664544  0.97110569    -0.72600
O1937       O  0.77569463  0.77768094  0.56309160    -0.73100
O1938       O  0.77957830  0.84055203  0.51022717    -0.73000
O1939       O  0.73540190  0.84671423  0.98365721    -0.73200
C1940       C  0.66922825  0.76301683  0.50326491     0.79000
C1941       C  0.74656788  0.64623707  0.49809039     0.79500
C1942       C  0.74395949  0.76108833  0.91382170     0.78500
C1943       C  0.83469254  0.73888006  0.49168154     0.78800
C1944       C  0.75729523  0.75865484  0.57915554     0.80000
C1945       C  0.76014674  0.86106979  0.49622300     0.79000
Zn1946     Zn  0.77680084  0.71595666  0.76883962     1.49700
Zn1947     Zn  0.72178214  0.77843841  0.77352854     1.49400
Zn1948     Zn  0.76973371  0.78241317  0.71894571     1.49100
Zn1949     Zn  0.72332270  0.71274489  0.72308697     1.49500
O1950       O  0.74787410  0.74779976  0.74631273    -1.82200
O1951       O  0.77139435  0.72462838  0.81291562    -0.72900
O1952       O  0.72738718  0.83660244  0.76632898    -0.72700
O1953       O  0.81455774  0.77631037  0.72353651    -0.72200
O1954       O  0.73309659  0.76650673  0.81699012    -0.72900
O1955       O  0.81920421  0.72958453  0.75819164    -0.72500
O1956       O  0.75968601  0.83844632  0.72781372    -0.73100
O1957       O  0.72783069  0.72203203  0.67924438    -0.72500
O1958       O  0.67757430  0.76510026  0.76770501    -0.73200
O1959       O  0.75983303  0.77072427  0.67559158    -0.72600
O1960       O  0.68008320  0.71914014  0.73276785    -0.73100
O1961       O  0.73372771  0.65699907  0.73018258    -0.73000
O1962       O  0.77149603  0.65854132  0.76243875    -0.72800
C1963       C  0.75335729  0.74483100  0.82883636     0.79000
C1964       C  0.74320375  0.85565685  0.74733165     0.79500
C1965       C  0.83075290  0.75419326  0.74005900     0.78500
C1966       C  0.74303143  0.74566342  0.66355299     0.78800
C1967       C  0.66499402  0.74057389  0.75061201     0.80000
C1968       C  0.75313102  0.63982438  0.74651287     0.79000
N1969       N  0.50484688  0.96436095  0.54405207    -0.34700
N1970       N  0.49769228  0.54828976  0.54479315    -0.55300
N1971       N  0.49432207  0.53274206  0.97757764    -0.34700
N1972       N  0.50260421  0.94936336  0.97843324    -0.55300
C1973       C  0.51022109  0.97076153  0.57368105     0.28900
C1974       C  0.51118179  0.92642535  0.53883744     0.28900
C1975       C  0.49987020  0.57072875  0.98245555     0.28900
C1976       C  0.50118334  0.52550375  0.94819723     0.28900
C1977       C  0.49317202  0.54176393  0.57476660     0.37500
C1978       C  0.49239672  0.58660327  0.53983914     0.37500
C1979       C  0.49919183  0.91101565  0.98417757     0.37500
C1980       C  0.49793055  0.95458988  0.94841151     0.37500
C1981       C  0.52011424  0.93653559  0.58728162    -0.20000
C1982       C  0.52060871  0.90852472  0.56536798    -0.20000
C1983       C  0.51019430  0.58776017  0.95590363    -0.20000
C1984       C  0.51097187  0.55926833  0.93440568    -0.20000
C1985       C  0.48517174  0.57608395  0.58892767    -0.21100
C1986       C  0.48452106  0.60443852  0.56685730    -0.21100
C1987       C  0.49247858  0.89187465  0.95763614    -0.21100
C1988       C  0.49184443  0.91943257  0.93501622    -0.21100
C1989       C  0.50448164  0.00588631  0.58914571    -0.16400
C1990       C  0.50715246  0.90702541  0.51120004    -0.16400
C1991       C  0.50119252  0.99021509  0.93269993    -0.16400
C1992       C  0.49667594  0.60611772  0.51174144    -0.16400
H1993       H  0.52653924  0.93220058  0.61052857     0.16500
H1994       H  0.52718036  0.87838832  0.56862926     0.16500
H1995       H  0.51684109  0.61756227  0.95235613     0.16500
H1996       H  0.51852374  0.56292809  0.91144372     0.16500
H1997       H  0.48052925  0.58037404  0.61265903     0.14800
H1998       H  0.47901615  0.63476982  0.57046005     0.14800
H1999       H  0.48855059  0.86120082  0.95472470     0.14800
H2000       H  0.48763331  0.91409057  0.91140233     0.14800
H2001       H  0.49405929  0.98331385  0.52925703     0.28000
H2002       H  0.48367992  0.51398457  0.99260899     0.28000
N2003       N  0.49955916  0.95153529  0.79329492    -0.34700
N2004       N  0.49941451  0.53493493  0.79502684    -0.55300
N2005       N  0.50011262  0.53746344  0.72877216    -0.34700
N2006       N  0.49629812  0.95375924  0.72683400    -0.55300
C2007       C  0.49407904  0.95793548  0.82308994     0.28900
C2008       C  0.49126417  0.91474212  0.78735552     0.28900
C2009       C  0.49519412  0.57534644  0.73520687     0.28900
C2010       C  0.49273822  0.53252729  0.69942294     0.28900
C2011       C  0.50429693  0.52738978  0.82469738     0.37500
C2012       C  0.50550905  0.57290828  0.79050461     0.37500
C2013       C  0.50001456  0.91502487  0.73142677     0.37500
C2014       C  0.50209570  0.96068968  0.69711596     0.37500
C2015       C  0.48222935  0.92480660  0.83619583    -0.20000
C2016       C  0.48034155  0.89764372  0.81370166    -0.20000
C2017       C  0.48460746  0.59468912  0.70967698    -0.20000
C2018       C  0.48306980  0.56764222  0.68712277    -0.20000
C2019       C  0.51341862  0.56076507  0.83894506    -0.21100
C2020       C  0.51414609  0.58961744  0.81736817    -0.21100
C2021       C  0.50803264  0.89733005  0.70442229    -0.21100
C2022       C  0.50912506  0.92616884  0.68276161    -0.21100
C2023       C  0.50085613  0.99218043  0.83901171    -0.16400
C2024       C  0.49518163  0.89529225  0.75938029    -0.16400
C2025       C  0.49954915  0.99749423  0.68262930    -0.16400
C2026       C  0.50139491  0.59338136  0.76299295    -0.16400
H2027       H  0.47549271  0.92064239  0.85950909     0.16500
H2028       H  0.47191062  0.86852115  0.81653920     0.16500
H2029       H  0.47869871  0.62519025  0.70744907     0.16500
H2030       H  0.47565806  0.57322999  0.66429670     0.16500
H2031       H  0.51891012  0.56412625  0.86237508     0.14800
H2032       H  0.52012918  0.61953656  0.82109914     0.14800
H2033       H  0.51277440  0.86685768  0.70057299     0.14800
H2034       H  0.51448691  0.92205806  0.65920053     0.14800
H2035       H  0.51147978  0.96945144  0.77867812     0.28000
H2036       H  0.51113877  0.51732990  0.74254500     0.28000
N2037       N  0.75247312  0.96289844  0.96538946    -0.34700
N2038       N  0.75136002  0.54654962  0.96438121    -0.55300
N2039       N  0.74525558  0.54471096  0.53176086    -0.34700
N2040       N  0.76080586  0.96005382  0.53085389    -0.55300
C2041       C  0.75736204  0.96943252  0.93549407     0.28900
C2042       C  0.76022502  0.92544735  0.97121089     0.28900
C2043       C  0.75073363  0.58275244  0.52618142     0.28900
C2044       C  0.75203550  0.53733519  0.56116142     0.28900
C2045       C  0.74497320  0.53969553  0.93500309     0.37500
C2046       C  0.74487439  0.58449471  0.96931214     0.37500
C2047       C  0.75784388  0.92171830  0.52558619     0.37500
C2048       C  0.75613978  0.96487805  0.56088148     0.37500
C2049       C  0.76838977  0.93575534  0.92224409    -0.20000
C2050       C  0.77018230  0.90800826  0.94473834    -0.20000
C2051       C  0.76105995  0.59968798  0.55242333    -0.20000
C2052       C  0.76164624  0.57116459  0.57444775    -0.20000
C2053       C  0.73447028  0.57344100  0.92125975    -0.21100
C2054       C  0.73441663  0.60181375  0.94291057    -0.21100
C2055       C  0.75169474  0.90211293  0.55243165    -0.21100
C2056       C  0.75079069  0.92942844  0.57475272    -0.21100
C2057       C  0.75018325  0.00412543  0.91958685    -0.16400
C2058       C  0.76165780  0.90376505  0.49716653    -0.16400
C2059       C  0.75862687  0.00046074  0.57615808    -0.16400
C2060       C  0.74553352  0.60290538  0.49843594    -0.16400
H2061       H  0.77444519  0.93153155  0.89879838     0.16500
H2062       H  0.77770370  0.87822147  0.94185004     0.16500
H2063       H  0.76764291  0.62949428  0.55551969     0.16500
H2064       H  0.76865899  0.57490940  0.59752646     0.16500
H2065       H  0.72741151  0.57724858  0.89816064     0.14800
H2066       H  0.72723361  0.63169823  0.93957102     0.14800
H2067       H  0.74837536  0.87128443  0.55573960     0.14800
H2068       H  0.74699891  0.92367874  0.59848096     0.14800
H2069       H  0.74103248  0.98130480  0.98010070     0.28000
H2070       H  0.73457120  0.52596873  0.51722174     0.28000
N2071       N  0.74918510  0.53990832  0.71509297    -0.34700
N2072       N  0.75034837  0.54024094  0.78133438    -0.55300
N2073       N  0.74299235  0.95634728  0.78123082    -0.34700
N2074       N  0.74949737  0.95606091  0.71478676    -0.55300
C2075       C  0.75780808  0.57666874  0.72040048     0.28900
C2076       C  0.75533518  0.53237465  0.68565979     0.28900
C2077       C  0.74885361  0.96260753  0.81089325     0.28900
C2078       C  0.74740000  0.91794603  0.77594463     0.28900
C2079       C  0.74733217  0.57875127  0.77576146     0.37500
C2080       C  0.74400599  0.53504772  0.81104242     0.37500
C2081       C  0.74617312  0.96312864  0.68476344     0.37500
C2082       C  0.74072161  0.91911654  0.71983935     0.37500
C2083       C  0.76952805  0.59276255  0.69409010    -0.20000
C2084       C  0.76803459  0.56475858  0.67219550    -0.20000
C2085       C  0.75660216  0.92763323  0.82467749    -0.20000
C2086       C  0.75586630  0.89954859  0.80268893    -0.20000
C2087       C  0.73913024  0.59806432  0.80199812    -0.21100
C2088       C  0.73714966  0.57036813  0.82432905    -0.21100
C2089       C  0.73520989  0.93058137  0.67073958    -0.21100
C2090       C  0.73172763  0.90273617  0.69288754    -0.21100
C2091       C  0.75329732  0.59699912  0.74769990    -0.16400
C2092       C  0.74788925  0.49805239  0.67030406    -0.16400
C2093       C  0.74299468  0.89896399  0.74789690    -0.16400
C2094       C  0.74673057  0.49932355  0.82671325    -0.16400
H2095       H  0.77805051  0.62179683  0.69093591     0.16500
H2096       H  0.77536471  0.56797859  0.64900299     0.16500
H2097       H  0.76229054  0.92277053  0.84811014     0.16500
H2098       H  0.76113072  0.86905294  0.80613280     0.16500
H2099       H  0.73513248  0.62890543  0.80486873     0.14800
H2100       H  0.73138443  0.57570131  0.84764167     0.14800
H2101       H  0.73001089  0.92730164  0.64711878     0.14800
H2102       H  0.72350287  0.87370796  0.68947329     0.14800
H2103       H  0.73645253  0.52292838  0.72969347     0.28000
H2104       H  0.73376653  0.97633492  0.76607019     0.28000
C2105       C  0.74782148  0.50026037  0.85976324    -0.11400
C2106       C  0.74827346  0.00238609  0.88651715    -0.12900
C2107       C  0.75798151  0.99990310  0.60925236    -0.11400
C2108       C  0.74823324  0.49886136  0.63717751    -0.12900
C2109       C  0.50135926  0.99024481  0.89959488    -0.11400
C2110       C  0.50111839  0.99081343  0.87211269    -0.12900
C2111       C  0.50251732  0.00391931  0.62221802    -0.11400
C2112       C  0.50100932  0.00025498  0.64956958    -0.12900
C2113       C  0.75652764  0.74222542  0.86183122    -0.14500
C2114       C  0.74030084  0.76421969  0.88085409    -0.29700
H2115       H  0.77303582  0.72166288  0.87068372     0.14500
H2116       H  0.72413187  0.78529212  0.87208695     0.15100
C2117       C  0.75904969  0.76254202  0.61205647    -0.14500
C2118       C  0.74088737  0.74296376  0.63064141    -0.29700
H2119       H  0.77583530  0.78165258  0.62115497     0.14500
H2120       H  0.72446617  0.72333913  0.62152829     0.15100
C2121       C  0.88193182  0.73482699  0.75487064    -0.14500
C2122       C  0.86364913  0.75749611  0.73808738    -0.29700
H2123       H  0.87247905  0.71330166  0.77017267     0.14500
H2124       H  0.87295671  0.77886325  0.72256637     0.15100
C2125       C  0.61345689  0.75568832  0.76892281    -0.14500
C2126       C  0.63222044  0.73590987  0.75068569    -0.29700
H2127       H  0.62223592  0.77653187  0.78474770     0.14500
H2128       H  0.62323843  0.71518576  0.73485933     0.15100
C2129       C  0.88603001  0.74728597  0.51042337    -0.14500
C2130       C  0.86731711  0.73116615  0.49061089    -0.29700
H2131       H  0.87710676  0.76628328  0.52791380     0.14500
H2132       H  0.87673009  0.72233316  0.96784493     0.15100
C2133       C  0.61816674  0.74416746  0.52006361    -0.14500
C2134       C  0.63630609  0.76710487  0.50365524    -0.29700
H2135       H  0.62946834  0.70958625  0.02841291     0.14500
H2136       H  0.62663817  0.78960822  0.48917408     0.15100
C2137       C  0.50804428  0.75331851  0.89615947    -0.14500
C2138       C  0.48819445  0.73723254  0.87772206    -0.29700
H2139       H  0.52602563  0.77076111  0.88682153     0.14500
H2140       H  0.97988108  0.70995837  0.87704136     0.15100
C2141       C  0.50800622  0.73746940  0.64606230    -0.14500
C2142       C  0.49144364  0.75974613  0.62741989    -0.29700
H2143       H  0.97605522  0.76988555  0.62594961     0.14500
H2144       H  0.47526420  0.78046643  0.63661149     0.15100
loop_ 
_geom_bond_atom_site_label_1 
_geom_bond_atom_site_label_2 
_geom_bond_distance 
_geom_bond_site_symmetry_2 
_ccdc_geom_bond_type 
Zn1           O6   2.025       .  S
Zn1          O10   2.053       .  S
Zn1          O17   2.038       .  S
Zn1        O1345   1.968       .  S
Zn2           O7   2.008       .  S
Zn2           O9   2.003       .  S
Zn2          O13   2.003       .  S
Zn2         O273   1.950       .  S
Zn3           O8   2.006       .  S
Zn3          O11   2.010       .  S
Zn3          O14   1.997       .  S
Zn3        O1077   1.952       .  S
Zn4          O12   1.994       .  S
Zn4          O15   2.019       .  S
Zn4          O16   2.005       .  S
Zn4           O5   1.957       .  S
O5        Zn1341   1.970   1_454  S
O5         Zn270   1.956   1_554  S
O5        Zn1075   1.954   1_455  S
O6         C1090   1.276       .  A
O7          C287   1.272       .  A
O8           C20   1.271       .  A
O9           C18   1.273   1_455  A
O10         C288   1.277       .  A
O11        C1091   1.271       .  A
O12          C21   1.269       .  A
O13         C290   1.270       .  A
O14        C1093   1.272       .  A
O15          C22   1.272       .  A
O16          C23   1.272   1_454  A
O17        C1363   1.277       .  A
C18        O1078   1.269       .  A
C18         C261   1.467       .  S
C19         O275   1.273   1_554  A
C19        O1083   1.273   1_455  A
C19         C114   1.482       .  S
C20         O278   1.276   1_554  A
C20         C253   1.478       .  S
C21        O1086   1.273   1_455  A
C21         C266   1.466       .  S
C22         O281   1.274   1_554  A
C22         C257   1.479       .  S
C23        O1357   1.276       .  A
C23         C116   1.485       .  S
Zn24         O29   2.008       .  S
Zn24         O33   2.008       .  S
Zn24         O40   1.987       .  S
Zn24         O28   1.950       .  S
Zn25         O30   1.999       .  S
Zn25         O32   2.014       .  S
Zn25         O36   2.016       .  S
Zn25       O1100   1.954   1_455  S
Zn26         O31   2.023       .  S
Zn26         O34   1.997       .  S
Zn26         O37   2.015       .  S
Zn26         O28   1.959       .  S
Zn27         O35   2.009       .  S
Zn27         O38   2.026       .  S
Zn27         O39   1.992       .  S
Zn27       O1100   1.957   1_455  S
O28       Zn1097   1.944       .  S
O28       Zn1099   1.963       .  S
O29          C41   1.271       .  A
O30        C1114   1.273   1_455  A
O31          C43   1.274       .  A
O32        C1113   1.273   1_455  A
O33          C43   1.272       .  A
O34          C42   1.269       .  A
O35        C1116   1.272   1_455  A
O36          C45   1.272       .  A
O37          C44   1.274       .  A
O38          C45   1.274       .  A
O39        C1118   1.270       .  A
O40          C46   1.270       .  A
C41        O1104   1.270       .  A
C41        C1222   1.479       .  S
C42        O1102   1.271       .  A
C42        C1337   1.463       .  S
C43         C245   1.474       .  S
C44        O1107   1.275       .  A
C44        C1220   1.484       .  S
C45         C249   1.478       .  S
C46        O1111   1.277       .  A
C46        C1334   1.468       .  S
Zn47         O52   2.033       .  S
Zn47         O56   1.994       .  S
Zn47         O63   2.016       .  S
Zn47        O319   1.958       .  S
Zn48         O53   2.030       .  S
Zn48         O55   2.034       .  S
Zn48         O59   2.030       .  S
Zn48         O51   1.964   1_554  S
Zn49         O54   2.021       .  S
Zn49         O57   2.028       .  S
Zn49         O60   2.034       .  S
Zn49        O319   1.957       .  S
Zn50         O58   2.030       .  S
Zn50         O61   2.005       .  S
Zn50         O62   2.034       .  S
Zn50         O51   1.961   1_554  S
O51        Zn315   1.951       .  S
O51        Zn317   1.963       .  S
O52         C332   1.276       .  A
O53          C65   1.276   1_554  A
O54          C66   1.277       .  A
O55          C64   1.275   1_554  A
O56          C66   1.270       .  A
O57         C333   1.275       .  A
O58          C67   1.276   1_554  A
O59          C68   1.277       .  A
O60         C335   1.274       .  A
O61          C68   1.272       .  A
O62          C69   1.275   1_554  A
O63         C337   1.273       .  A
C64         O320   1.270       .  A
C64         C258   1.477       .  S
C65         O325   1.274       .  A
C65         C184   1.490       .  S
C66         C238   1.470       .  S
C67         O328   1.273       .  A
C67         C254   1.481       .  S
C68         C241   1.474       .  S
C69         O331   1.270       .  A
C69         C182   1.479       .  S
Zn70         O75   1.984       .  S
Zn70         O79   2.002       .  S
Zn70         O86   2.001       .  S
Zn70         O74   1.952       .  S
Zn71         O76   2.026       .  S
Zn71         O78   2.027       .  S
Zn71         O82   2.023       .  S
Zn71         O74   1.959       .  S
Zn72         O77   2.023       .  S
Zn72         O80   2.015       .  S
Zn72         O83   2.020       .  S
Zn72         O74   1.959       .  S
Zn73         O81   2.013       .  S
Zn73         O84   2.023       .  S
Zn73         O85   2.018       .  S
Zn73         O74   1.960       .  S
O75          C87   1.268       .  A
O76          C88   1.275       .  A
O77          C89   1.272       .  A
O78          C87   1.276       .  A
O79          C89   1.272       .  A
O80          C88   1.274       .  A
O81          C90   1.272       .  A
O82          C91   1.273       .  A
O83          C90   1.276       .  A
O84          C91   1.275       .  A
O85          C92   1.273       .  A
O86          C92   1.271       .  A
C87         C237   1.469       .  S
C88         C217   1.488       .  S
C89         C246   1.477       .  S
C90         C242   1.475       .  S
C91         C250   1.479       .  S
C92         C215   1.475       .  S
N93          C98   1.353   1_655  A
N93          C97   1.356   1_655  A
N93         H125   1.040       .  S
N94         C101   1.355       .  A
N94         C102   1.353       .  A
N95         C100   1.356   1_655  A
N95          C99   1.353   1_655  A
N95         H126   1.039       .  S
N96         C103   1.353   1_455  A
N96         C104   1.356   1_455  A
C97         C105   1.385       .  A
C97         C113   1.415   1_455  A
C98         C114   1.415       .  A
C98         C106   1.387       .  A
C99         C107   1.387       .  A
C99         C384   1.416       .  A
C100        C108   1.385       .  A
C100        C651   1.416   1_445  A
C101        C109   1.385       .  A
C101        C649   1.414   1_545  A
C102        C116   1.417   1_554  A
C102        C110   1.387       .  A
C103        C111   1.388       .  A
C103        C382   1.420   1_655  A
C104        C112   1.383       .  A
C104        C115   1.415       .  A
C105        C106   1.376       .  A
C105        H117   1.079       .  S
C106        H118   1.082       .  S
C107        C108   1.376       .  A
C107        H119   1.083       .  S
C108        H120   1.078       .  S
C109        C110   1.373       .  A
C109        H121   1.080       .  S
C110        H122   1.082       .  S
C111        C112   1.373       .  A
C111        H123   1.082       .  S
C112        H124   1.078       .  S
C113        C637   1.414       .  A
C113        C235   1.465       .  S
C114        C371   1.416   1_454  A
C115        C636   1.417   1_655  A
C115        C233   1.468       .  S
C116        C367   1.417   1_655  A
N127        C132   1.352       .  A
N127        C131   1.357       .  A
N127        H159   1.038   1_655  S
N128        C135   1.356       .  A
N128        C136   1.353       .  A
N129        C134   1.358       .  A
N129        C133   1.354       .  A
N129        H160   1.039   1_655  S
N130        C137   1.352       .  A
N130        C138   1.355       .  A
C131        C139   1.385       .  A
C131        C147   1.417       .  A
C132        C148   1.416       .  A
C132        C140   1.387       .  A
C133        C141   1.389       .  A
C133        C150   1.421       .  A
C134        C142   1.385       .  A
C134        C685   1.417   1_545  A
C135        C143   1.383   1_655  A
C135        C683   1.414   1_545  A
C136        C150   1.418       .  A
C136        C144   1.388   1_655  A
C137        C145   1.387   1_655  A
C137        C148   1.416       .  A
C138        C146   1.384   1_655  A
C138        C149   1.414       .  A
C139        C140   1.376       .  A
C139        H151   1.078       .  S
C140        H152   1.083       .  S
C141        C142   1.375       .  A
C141        H153   1.082       .  S
C142        H154   1.080       .  S
C143        C144   1.370       .  A
C143        H155   1.078       .  S
C144        H156   1.082       .  S
C145        C146   1.371       .  A
C145        H157   1.082       .  S
C146        H158   1.079       .  S
C147        C671   1.416   1_655  A
C147        C234   1.468       .  S
C148       C1116   1.477       .  S
C149        C670   1.416       .  A
C149        C236   1.465       .  S
C150       C1113   1.487       .  S
N161        C166   1.353       .  A
N161        C165   1.355       .  A
N161        H193   1.038       .  S
N162        C169   1.355       .  A
N162        C170   1.354       .  A
N163        C168   1.357       .  A
N163        C167   1.355       .  A
N163        H194   1.040       .  S
N164        C171   1.352       .  A
N164        C172   1.354       .  A
C165        C173   1.386       .  A
C165        C181   1.415       .  A
C166        C174   1.388       .  A
C166        C450   1.416       .  A
C167        C175   1.389       .  A
C167        C184   1.420   1_554  A
C168        C176   1.384       .  A
C168        C719   1.415       .  A
C169        C177   1.383       .  A
C169        C717   1.414       .  A
C170        C178   1.387       .  A
C170        C452   1.418       .  A
C171        C179   1.387       .  A
C171        C182   1.413   1_554  A
C172        C180   1.384       .  A
C172        C183   1.411       .  A
C173        C174   1.376       .  A
C173        H185   1.079       .  S
C174        H186   1.083       .  S
C175        C176   1.374       .  A
C175        H187   1.082       .  S
C176        H188   1.079       .  S
C177        C178   1.371       .  A
C177        H189   1.077       .  S
C178        H190   1.082       .  S
C179        C180   1.370       .  A
C179        H191   1.082       .  S
C180        H192   1.078       .  S
C181        C705   1.414       .  A
C181        C230   1.463       .  S
C182        C434   1.416       .  A
C183        C704   1.415       .  A
C183        C231   1.462       .  S
C184        C438   1.420       .  A
N195        C200   1.355       .  A
N195        C199   1.352       .  A
N195        H227   1.039       .  S
N196        C203   1.351       .  A
N196        C204   1.354       .  A
N197        C202   1.354       .  A
N197        C201   1.356       .  A
N197        H228   1.039       .  S
N198        C205   1.355       .  A
N198        C206   1.353       .  A
C199        C207   1.387       .  A
C199        C215   1.414       .  A
C200        C216   1.414       .  A
C200        C208   1.386       .  A
C201        C209   1.385       .  A
C201        C754   1.415       .  A
C202        C217   1.419       .  A
C202        C210   1.388       .  A
C203        C215   1.413       .  A
C203        C211   1.386       .  A
C204        C218   1.412       .  A
C204        C212   1.384       .  A
C205        C213   1.383       .  A
C205        C752   1.414       .  A
C206        C214   1.387       .  A
C206        C217   1.418       .  A
C207        C208   1.375       .  A
C207        H219   1.083       .  S
C208        H220   1.079       .  S
C209        C210   1.375       .  A
C209        H221   1.079       .  S
C210        H222   1.082       .  S
C211        C212   1.371       .  A
C211        H223   1.082       .  S
C212        H224   1.076       .  S
C213        C214   1.372       .  A
C213        H225   1.078       .  S
C214        H226   1.082       .  S
C216        C741   1.414   1_545  A
C216        C232   1.463       .  S
C218        C737   1.414   1_545  A
C218        C229   1.462       .  S
C229        C766   1.214       .  T
C230        C765   1.215       .  T
C231        C768   1.214       .  T
C232        C767   1.215       .  T
C233        C234   1.218       .  T
C235        C236   1.216       .  T
C237        C238   1.338       .  D
C237        H239   1.087       .  S
C238        H240   1.087       .  S
C241        C242   1.342       .  D
C241        H243   1.087       .  S
C242        H244   1.087       .  S
C245        C246   1.345       .  D
C245        H247   1.087       .  S
C246        H248   1.087       .  S
C249        C250   1.345       .  D
C249        H251   1.087       .  S
C250        H252   1.087       .  S
C253        C254   1.344   1_554  D
C253        H255   1.087       .  S
C254        H524   1.087       .  S
H256        C522   1.086       .  S
C257        C258   1.344   1_554  D
C257        H527   1.087       .  S
C258        H260   1.087       .  S
H259        C525   1.087       .  S
C261        C262   1.339   1_655  D
C261        H263   1.087       .  S
C262       C1118   1.467       .  S
C262       H1336   1.087       .  S
H264       C1334   1.087       .  S
C265       C1114   1.466       .  S
C265        C266   1.340   1_655  D
C265       H1339   1.087       .  S
C266        H268   1.087       .  S
H267       C1337   1.087       .  S
Zn269       O274   2.017       .  S
Zn269       O278   2.038       .  S
Zn269       O285   2.044       .  S
Zn269      O1077   1.964   1_556  S
Zn270       O275   2.014       .  S
Zn270       O277   1.997       .  S
Zn270       O281   2.023       .  S
Zn271       O276   1.998       .  S
Zn271       O279   2.002       .  S
Zn271       O282   1.980       .  S
Zn271      O1345   1.949       .  S
Zn272       O280   2.010       .  S
Zn272       O283   2.042       .  S
Zn272       O284   2.032       .  S
Zn272       O273   1.965       .  S
O273      Zn1073   1.956   1_455  S
O273      Zn1343   1.952   1_455  S
O274       C1358   1.276       .  A
O276        C288   1.270       .  A
O277        C286   1.271       .  A
O279       C1359   1.269       .  A
O280        C289   1.272       .  A
O282       C1361   1.269       .  A
O283        C290   1.277       .  A
O284        C291   1.276       .  A
O285       C1095   1.277   1_556  A
C286       O1346   1.278   1_455  A
C286        C529   1.473       .  S
C287       O1351   1.274   1_455  A
C287        C382   1.488       .  S
C288        C521   1.479       .  S
C289       O1354   1.275   1_455  A
C289        C534   1.472       .  S
C290        C525   1.478       .  S
C291       O1089   1.274   1_455  A
C291        C384   1.480       .  S
Zn292       O297   2.005       .  S
Zn292       O301   2.005       .  S
Zn292       O308   2.002       .  S
Zn292       O296   1.954       .  S
Zn293       O298   2.013       .  S
Zn293       O300   2.024       .  S
Zn293       O304   2.006       .  S
Zn293      O1368   1.960   1_455  S
Zn294       O299   2.044       .  S
Zn294       O302   2.026       .  S
Zn294       O305   2.035       .  S
Zn294       O296   1.967       .  S
Zn295       O303   2.039       .  S
Zn295       O306   2.045       .  S
Zn295       O307   2.039       .  S
Zn295      O1368   1.969   1_455  S
O296      Zn1365   1.962       .  S
O296      Zn1367   1.960       .  S
O297        C309   1.271       .  A
O298       C1382   1.274   1_455  A
O299        C311   1.276       .  A
O300       C1381   1.274       .  A
O301        C311   1.272       .  A
O302        C310   1.277       .  A
O303       C1384   1.276       .  A
O304        C313   1.272       .  A
O305        C312   1.276       .  A
O306        C313   1.277       .  A
O307       C1386   1.278   1_455  A
O308        C314   1.270       .  A
C309       O1372   1.273       .  A
C309       C1490   1.477       .  S
C310       O1370   1.271       .  A
C310       C1605   1.476       .  S
C311        C513   1.477       .  S
C312       O1375   1.274       .  A
C312       C1488   1.490       .  S
C313        C517   1.478       .  S
C314       O1379   1.274       .  A
C314       C1602   1.470       .  S
Zn315       O320   2.003       .  S
Zn315       O324   1.983       .  S
Zn315       O331   1.995       .  S
Zn316       O321   2.010       .  S
Zn316       O323   2.003       .  S
Zn316       O327   2.006       .  S
Zn316       O319   1.948       .  S
Zn317       O322   2.013       .  S
Zn317       O325   2.019       .  S
Zn317       O328   2.026       .  S
Zn318       O326   2.021       .  S
Zn318       O329   1.998       .  S
Zn318       O330   2.018       .  S
Zn318       O319   1.952       .  S
O321        C333   1.274       .  A
O322        C334   1.274       .  A
O323        C332   1.269       .  A
O324        C334   1.268       .  A
O326        C335   1.275       .  A
O327        C336   1.274       .  A
O329        C336   1.270       .  A
O330        C337   1.274       .  A
C332        C526   1.478       .  S
C333        C452   1.491       .  S
C334        C506   1.465       .  S
C335        C522   1.484       .  S
C336        C509   1.468       .  S
C337        C450   1.476       .  S
Zn338       O343   1.997       .  S
Zn338       O347   2.010       .  S
Zn338       O354   2.012       .  S
Zn338       O342   1.954       .  S
Zn339       O344   2.017       .  S
Zn339       O346   1.997       .  S
Zn339       O350   2.023       .  S
Zn339       O342   1.957       .  S
Zn340       O345   2.038       .  S
Zn340       O348   2.025       .  S
Zn340       O351   2.017       .  S
Zn340       O342   1.959       .  S
Zn341       O349   1.991       .  S
Zn341       O352   2.023       .  S
Zn341       O353   2.005       .  S
Zn341       O342   1.958       .  S
O343        C355   1.270       .  A
O344        C356   1.273       .  A
O345        C357   1.273       .  A
O346        C355   1.274       .  A
O347        C357   1.273       .  A
O348        C356   1.276       .  A
O349        C358   1.270       .  A
O350        C359   1.272       .  A
O351        C358   1.276       .  A
O352        C359   1.274       .  A
O353        C360   1.270       .  A
O354        C360   1.272       .  A
C355        C505   1.467       .  S
C356        C485   1.488       .  S
C357        C514   1.483       .  S
C358        C510   1.467       .  S
C359        C518   1.481       .  S
C360        C483   1.475       .  S
N361        C366   1.354       .  A
N361        C365   1.356       .  A
N361        H393   1.039   1_455  S
N362        C369   1.355   1_455  A
N362        C370   1.353   1_455  A
N363        C368   1.356   1_655  A
N363        C367   1.355   1_655  A
N363        H394   1.039       .  S
N364        C371   1.352       .  A
N364        C372   1.354       .  A
C365        C373   1.384       .  A
C365        C381   1.413       .  A
C366        C382   1.419       .  A
C366        C374   1.389       .  A
C367        C375   1.387       .  A
C368        C919   1.417   1_445  A
C368        C376   1.385       .  A
C369        C917   1.414   1_645  A
C369        C377   1.385       .  A
C370        C384   1.415   1_655  A
C370        C378   1.386       .  A
C371        C379   1.387       .  A
C372        C380   1.384       .  A
C372        C383   1.412       .  A
C373        C374   1.374       .  A
C373        H385   1.080       .  S
C374        H386   1.082       .  S
C375        C376   1.375       .  A
C375        H387   1.082       .  S
C376        H388   1.078       .  S
C377        C378   1.373       .  A
C377        H389   1.078       .  S
C378        H390   1.082       .  S
C379        C380   1.371       .  A
C379        H391   1.082       .  S
C380        H392   1.078       .  S
C381        C905   1.413       .  A
C381        C503   1.461       .  S
C383        C904   1.415   1_655  A
C383        C501   1.462       .  S
N395        C400   1.354   1_455  A
N395        C399   1.356   1_455  A
N395        H427   1.039       .  S
N396        C403   1.354       .  A
N396        C404   1.351       .  A
N397        C402   1.355   1_455  A
N397        C401   1.352   1_455  A
N397        H428   1.040       .  S
N398        C405   1.353       .  A
N398        C406   1.355       .  A
C399        C407   1.385       .  A
C399        C415   1.416   1_655  A
C400        C416   1.417   1_655  A
C400        C408   1.387       .  A
C401        C409   1.387       .  A
C401        C418   1.413   1_655  A
C402        C953   1.412   1_645  A
C402        C410   1.385       .  A
C403        C951   1.412   1_545  A
C403        C411   1.383       .  A
C404        C418   1.415       .  A
C404        C412   1.387       .  A
C405        C413   1.388       .  A
C405        C416   1.419       .  A
C406        C414   1.384       .  A
C406        C417   1.414       .  A
C407        C408   1.376       .  A
C407        H419   1.079       .  S
C408        H420   1.082       .  S
C409        C410   1.374       .  A
C409        H421   1.082       .  S
C410        H422   1.079       .  S
C411        C412   1.371       .  A
C411        H423   1.078       .  S
C412        H424   1.082       .  S
C413        C414   1.374       .  A
C413        H425   1.082       .  S
C414        H426   1.080       .  S
C415        C939   1.412       .  A
C415        C502   1.462   1_455  S
C416       C1384   1.485       .  S
C417        C938   1.413   1_455  A
C417        C504   1.461       .  S
C418       C1381   1.479       .  S
N429        C434   1.354       .  A
N429        C433   1.356       .  A
N429        H461   1.038       .  S
N430        C437   1.357       .  A
N430        C438   1.354       .  A
N431        C436   1.356       .  A
N431        C435   1.354       .  A
N431        H462   1.040       .  S
N432        C439   1.351       .  A
N432        C440   1.353       .  A
C433        C441   1.385       .  A
C433        C449   1.416       .  A
C434        C442   1.387       .  A
C435        C443   1.388       .  A
C435        C452   1.419       .  A
C436        C987   1.414       .  A
C436        C444   1.384       .  A
C437        C985   1.418       .  A
C437        C445   1.384       .  A
C438        C446   1.387       .  A
C439        C447   1.386       .  A
C439        C450   1.413       .  A
C440        C448   1.385       .  A
C440        C451   1.412       .  A
C441        C442   1.374       .  A
C441        H453   1.078       .  S
C442        H454   1.082       .  S
C443        C444   1.375       .  A
C443        H455   1.082       .  S
C444        H456   1.079       .  S
C445        C446   1.374       .  A
C445        H457   1.077       .  S
C446        H458   1.082       .  S
C447        C448   1.373       .  A
C447        H459   1.083       .  S
C448        H460   1.078       .  S
C449        C973   1.418       .  A
C449        C498   1.468       .  S
C451        C972   1.413       .  A
C451        C499   1.461       .  S
N463        C468   1.355       .  A
N463        C467   1.352       .  A
N463        H495   1.039       .  S
N464        C471   1.351       .  A
N464        C472   1.353       .  A
N465        C470   1.355       .  A
N465        C469   1.359       .  A
N465        H496   1.039       .  S
N466        C473   1.355       .  A
N466        C474   1.352       .  A
C467        C475   1.387       .  A
C467        C483   1.415       .  A
C468        C484   1.416       .  A
C468        C476   1.386       .  A
C469        C477   1.384       .  A
C469       C1022   1.419       .  A
C470        C485   1.423       .  A
C470        C478   1.388       .  A
C471        C483   1.412       .  A
C471        C479   1.387       .  A
C472        C486   1.411       .  A
C472        C480   1.384       .  A
C473        C481   1.383       .  A
C473       C1020   1.413       .  A
C474        C482   1.388       .  A
C474        C485   1.417       .  A
C475        C476   1.377       .  A
C475        H487   1.082       .  S
C476        H488   1.079       .  S
C477        C478   1.377       .  A
C477        H489   1.078       .  S
C478        H490   1.082       .  S
C479        C480   1.370       .  A
C479        H491   1.083       .  S
C480        H492   1.077       .  S
C481        C482   1.371       .  A
C481        H493   1.078       .  S
C482        H494   1.082       .  S
C484       C1009   1.414   1_545  A
C484        C500   1.463       .  S
C486       C1005   1.418   1_545  A
C486        C497   1.466       .  S
C497       C1034   1.217       .  T
C498       C1033   1.218       .  T
C499       C1036   1.214       .  T
C500       C1035   1.215       .  T
C501        C502   1.214       .  T
C503        C504   1.213       .  T
C505        C506   1.339       .  D
C505        H507   1.087       .  S
C506        H508   1.087       .  S
C509        C510   1.340       .  D
C509        H511   1.087       .  S
C510        H512   1.087       .  S
C513        C514   1.346       .  D
C513        H515   1.087       .  S
C514        H516   1.086       .  S
C517        C518   1.344       .  D
C517        H519   1.087       .  S
C518        H520   1.087       .  S
C521        C522   1.345       .  D
C521        H523   1.087       .  S
C525        C526   1.341       .  D
C526        H528   1.087       .  S
C529        C530   1.338   1_455  D
C529        H531   1.087       .  S
C530       C1386   1.471       .  S
C530       H1604   1.087       .  S
H532       C1602   1.087       .  S
C533       C1382   1.470       .  S
C533        C534   1.341   1_655  D
C533       H1607   1.087       .  S
C534        H536   1.087       .  S
H535       C1605   1.087       .  S
Zn537       O542   2.019       .  S
Zn537       O546   2.042       .  S
Zn537       O553   2.026       .  S
Zn537      O1881   1.966       .  S
Zn538       O543   2.014       .  S
Zn538       O545   2.005       .  S
Zn538       O549   2.012       .  S
Zn538       O809   1.953       .  S
Zn539       O544   2.014       .  S
Zn539       O547   2.020       .  S
Zn539       O550   2.008       .  S
Zn539      O1613   1.956       .  S
Zn540       O548   1.983       .  S
Zn540       O551   2.010       .  S
Zn540       O552   1.996       .  S
Zn540       O541   1.955       .  S
O541      Zn1877   1.969   1_454  S
O541       Zn806   1.954   1_554  S
O541      Zn1611   1.954   1_455  S
O542       C1626   1.276       .  A
O543        C823   1.273   1_455  A
O544        C556   1.272       .  A
O545        C554   1.274   1_455  A
O546        C824   1.276       .  A
O547       C1627   1.272       .  A
O548        C557   1.268       .  A
O549        C826   1.271       .  A
O550       C1629   1.274       .  A
O551        C558   1.271       .  A
O552        C559   1.271   1_454  A
O553       C1899   1.275       .  A
C554       O1614   1.270       .  A
C554        C797   1.469       .  S
C555        O811   1.273   1_554  A
C555       O1619   1.274   1_455  A
C555        C650   1.485       .  S
C556        O814   1.276   1_554  A
C556        C789   1.480       .  S
C557       O1622   1.274   1_455  A
C557        C802   1.464       .  S
C558        O817   1.275   1_554  A
C558        C793   1.477       .  S
C559       O1893   1.276       .  A
C559        C652   1.482       .  S
Zn560       O565   2.014       .  S
Zn560       O569   2.014       .  S
Zn560       O576   1.995       .  S
Zn560       O564   1.949       .  S
Zn561       O566   2.002       .  S
Zn561       O568   2.015       .  S
Zn561       O572   2.016       .  S
Zn561      O1636   1.952   1_455  S
Zn562       O567   2.020       .  S
Zn562       O570   1.992       .  S
Zn562       O573   2.011       .  S
Zn562       O564   1.962       .  S
Zn563       O571   2.015       .  S
Zn563       O574   2.026       .  S
Zn563       O575   1.997       .  S
Zn563      O1636   1.959   1_455  S
O564      Zn1633   1.953       .  S
O564      Zn1635   1.970       .  S
O565        C577   1.272       .  A
O566       C1650   1.274   1_455  A
O567        C579   1.273       .  A
O568       C1649   1.274       .  A
O569        C579   1.272       .  A
O570        C578   1.269       .  A
O571       C1652   1.273   1_455  A
O572        C581   1.272       .  A
O573        C580   1.274       .  A
O574        C581   1.274       .  A
O575       C1654   1.271       .  A
O576        C582   1.271       .  A
C577       O1640   1.272       .  A
C577       C1758   1.484       .  S
C578       O1638   1.273       .  A
C578       C1873   1.466       .  S
C579        C781   1.475       .  S
C580       O1643   1.276       .  A
C580       C1756   1.485       .  S
C581        C785   1.477       .  S
C582       O1647   1.277       .  A
C582       C1870   1.471       .  S
Zn583       O588   2.031       .  S
Zn583       O592   1.995       .  S
Zn583       O599   2.020       .  S
Zn583       O855   1.960       .  S
Zn584       O589   2.034       .  S
Zn584       O591   2.038       .  S
Zn584       O595   2.032       .  S
Zn584       O587   1.965   1_554  S
Zn585       O590   2.020       .  S
Zn585       O593   2.028       .  S
Zn585       O596   2.038       .  S
Zn585       O855   1.958       .  S
Zn586       O594   2.026       .  S
Zn586       O597   1.994       .  S
Zn586       O598   2.026       .  S
Zn586       O587   1.959   1_554  S
O587       Zn851   1.948       .  S
O587       Zn853   1.961       .  S
O588        C868   1.275       .  A
O589        C601   1.277   1_554  A
O590        C602   1.277       .  A
O591        C600   1.276   1_554  A
O592        C602   1.270       .  A
O593        C869   1.275       .  A
O594        C603   1.275   1_554  A
O595        C604   1.277       .  A
O596        C871   1.274       .  A
O597        C604   1.270       .  A
O598        C605   1.274   1_554  A
O599        C873   1.273       .  A
C600        O856   1.269       .  A
C600        C794   1.476       .  S
C601        O861   1.273       .  A
C601        C720   1.489       .  S
C602        C774   1.470       .  S
C603        O864   1.273       .  A
C603        C790   1.481       .  S
C604        C777   1.471       .  S
C605        O867   1.269       .  A
C605        C718   1.477       .  S
Zn606       O611   1.987       .  S
Zn606       O615   2.001       .  S
Zn606       O622   2.006       .  S
Zn606       O610   1.951       .  S
Zn607       O612   2.019       .  S
Zn607       O614   2.023       .  S
Zn607       O618   2.022       .  S
Zn607       O610   1.959       .  S
Zn608       O613   2.030       .  S
Zn608       O616   2.017       .  S
Zn608       O619   2.022       .  S
Zn608       O610   1.960       .  S
Zn609       O617   2.002       .  S
Zn609       O620   2.016       .  S
Zn609       O621   2.016       .  S
Zn609       O610   1.957       .  S
O611        C623   1.268       .  A
O612        C624   1.275       .  A
O613        C625   1.273       .  A
O614        C623   1.275       .  A
O615        C625   1.272       .  A
O616        C624   1.274       .  A
O617        C626   1.271       .  A
O618        C627   1.273       .  A
O619        C626   1.276       .  A
O620        C627   1.274       .  A
O621        C628   1.273       .  A
O622        C628   1.272       .  A
C623        C773   1.469       .  S
C624        C753   1.487       .  S
C625        C782   1.478       .  S
C626        C778   1.473       .  S
C627        C786   1.478       .  S
C628        C751   1.477       .  S
N629        C634   1.354   1_655  A
N629        C633   1.355   1_655  A
N629        H661   1.040       .  S
N630        C637   1.355       .  A
N630        C638   1.352       .  A
N631        C636   1.357       .  A
N631        C635   1.353       .  A
N631        H662   1.038   1_455  S
N632        C639   1.352       .  A
N632        C640   1.355       .  A
C633        C641   1.385       .  A
C633        C649   1.416   1_455  A
C634        C650   1.416       .  A
C634        C642   1.387       .  A
C635        C643   1.387       .  A
C635        C920   1.416       .  A
C636        C644   1.385       .  A
C637        C645   1.384       .  A
C638        C652   1.417   1_554  A
C638        C646   1.388       .  A
C639        C647   1.387       .  A
C639        C918   1.417       .  A
C640        C648   1.384       .  A
C640        C651   1.414       .  A
C641        C642   1.376       .  A
C641        H653   1.079       .  S
C642        H654   1.082       .  S
C643        C644   1.375       .  A
C643        H655   1.083       .  S
C644        H656   1.077       .  S
C645        C646   1.373       .  A
C645        H657   1.080       .  S
C646        H658   1.082       .  S
C647        C648   1.373       .  A
C647        H659   1.082       .  S
C648        H660   1.078       .  S
C649        C771   1.464       .  S
C650        C907   1.416   1_454  A
C651        C769   1.465       .  S
C652        C903   1.415   1_655  A
N663        C668   1.352       .  A
N663        C667   1.356       .  A
N663        H695   1.038   1_655  S
N664        C671   1.356   1_655  A
N664        C672   1.353   1_655  A
N665        C670   1.358   1_455  A
N665        C669   1.354   1_455  A
N665        H696   1.039       .  S
N666        C673   1.352       .  A
N666        C674   1.354       .  A
C667        C675   1.385       .  A
C667        C683   1.416       .  A
C668        C684   1.416       .  A
C668        C676   1.387       .  A
C669        C677   1.390       .  A
C669        C686   1.421   1_655  A
C670        C678   1.384       .  A
C671        C679   1.383       .  A
C672        C686   1.418       .  A
C672        C680   1.387       .  A
C673        C681   1.387   1_655  A
C673        C684   1.415       .  A
C674        C682   1.384   1_655  A
C674        C685   1.414       .  A
C675        C676   1.374       .  A
C675        H687   1.078       .  S
C676        H688   1.082       .  S
C677        C678   1.375       .  A
C677        H689   1.082       .  S
C678        H690   1.080       .  S
C679        C680   1.372       .  A
C679        H691   1.077       .  S
C680        H692   1.082       .  S
C681        C682   1.370       .  A
C681        H693   1.082       .  S
C682        H694   1.078       .  S
C683        C770   1.465       .  S
C684       C1652   1.478       .  S
C685        C772   1.465       .  S
C686       C1649   1.487       .  S
N697        C702   1.353       .  A
N697        C701   1.355       .  A
N697        H729   1.038       .  S
N698        C705   1.355       .  A
N698        C706   1.353       .  A
N699        C704   1.357       .  A
N699        C703   1.354       .  A
N699        H730   1.039       .  S
N700        C707   1.352       .  A
N700        C708   1.354       .  A
C701        C709   1.386       .  A
C701        C717   1.415   1_565  A
C702        C986   1.416       .  A
C702        C710   1.388       .  A
C703        C711   1.389       .  A
C703        C720   1.420   1_554  A
C704        C712   1.384       .  A
C705        C713   1.383       .  A
C706        C988   1.417       .  A
C706        C714   1.387       .  A
C707        C715   1.387       .  A
C707        C718   1.413   1_554  A
C708        C716   1.384       .  A
C708        C719   1.412   1_565  A
C709        C710   1.376       .  A
C709        H721   1.079       .  S
C710        H722   1.083       .  S
C711        C712   1.374       .  A
C711        H723   1.082       .  S
C712        H724   1.079       .  S
C713        C714   1.372       .  A
C713        H725   1.077       .  S
C714        H726   1.082       .  S
C715        C716   1.370       .  A
C715        H727   1.082       .  S
C716        H728   1.077       .  S
C717        C766   1.462       .  S
C718        C970   1.416       .  A
C719        C767   1.463       .  S
C720        C974   1.420       .  A
N731        C736   1.355       .  A
N731        C735   1.352       .  A
N731        H763   1.038       .  S
N732        C739   1.352       .  A
N732        C740   1.354       .  A
N733        C738   1.353       .  A
N733        C737   1.356       .  A
N733        H764   1.040       .  S
N734        C741   1.355       .  A
N734        C742   1.353       .  A
C735        C743   1.387       .  A
C735        C751   1.414       .  A
C736        C752   1.414       .  A
C736        C744   1.386       .  A
C737        C745   1.385       .  A
C738        C753   1.418       .  A
C738        C746   1.388       .  A
C739        C751   1.414       .  A
C739        C747   1.386       .  A
C740        C754   1.413       .  A
C740        C748   1.384       .  A
C741        C749   1.383       .  A
C742        C750   1.387       .  A
C742        C753   1.418       .  A
C743        C744   1.375       .  A
C743        H755   1.083       .  S
C744        H756   1.079       .  S
C745        C746   1.376       .  A
C745        H757   1.080       .  S
C746        H758   1.082       .  S
C747        C748   1.371       .  A
C747        H759   1.082       .  S
C748        H760   1.076       .  S
C749        C750   1.372       .  A
C749        H761   1.078       .  S
C750        H762   1.082       .  S
C752        C768   1.462       .  S
C754        C765   1.463       .  S
C769        C770   1.216       .  T
C771        C772   1.215       .  T
C773        C774   1.339       .  D
C773        H775   1.087       .  S
C774        H776   1.087       .  S
C777        C778   1.340       .  D
C777        H779   1.087       .  S
C778        H780   1.087       .  S
C781        C782   1.346       .  D
C781        H783   1.087       .  S
C782        H784   1.087       .  S
C785        C786   1.345       .  D
C785        H787   1.087       .  S
C786        H788   1.087       .  S
C789        C790   1.345   1_554  D
C789        H791   1.087       .  S
C790       H1060   1.087       .  S
H792       C1058   1.086       .  S
C793        C794   1.342   1_554  D
C793       H1063   1.087       .  S
C794        H796   1.087       .  S
H795       C1061   1.087       .  S
C797        C798   1.341   1_655  D
C797        H799   1.087       .  S
C798       C1654   1.468       .  S
C798       H1872   1.087       .  S
H800       C1870   1.087       .  S
C801       C1650   1.464       .  S
C801        C802   1.337   1_655  D
C801       H1875   1.087       .  S
C802        H804   1.087       .  S
H803       C1873   1.087       .  S
Zn805       O810   2.023       .  S
Zn805       O814   2.040       .  S
Zn805       O821   2.050       .  S
Zn805      O1613   1.966   1_556  S
Zn806       O811   2.014       .  S
Zn806       O813   1.998       .  S
Zn806       O817   2.024       .  S
Zn807       O812   2.011       .  S
Zn807       O815   2.010       .  S
Zn807       O818   1.996       .  S
Zn807      O1881   1.955       .  S
Zn808       O816   2.007       .  S
Zn808       O819   2.036       .  S
Zn808       O820   2.026       .  S
Zn808       O809   1.964       .  S
O809      Zn1609   1.961   1_455  S
O809      Zn1879   1.952   1_455  S
O810       C1894   1.277       .  A
O812        C824   1.272       .  A
O813        C822   1.271       .  A
O815       C1895   1.272       .  A
O816        C825   1.271       .  A
O818       C1897   1.270       .  A
O819        C826   1.276       .  A
O820        C827   1.275       .  A
O821       C1631   1.278   1_556  A
C822       O1882   1.278   1_455  A
C822       C1065   1.473       .  S
C823       O1887   1.274       .  A
C823        C918   1.487       .  S
C824       C1057   1.480       .  S
C825       O1890   1.274   1_455  A
C825       C1070   1.470       .  S
C826       C1061   1.479       .  S
C827       O1625   1.273   1_455  A
C827        C920   1.479       .  S
Zn828       O833   2.001       .  S
Zn828       O837   2.001       .  S
Zn828       O844   1.993       .  S
Zn828       O832   1.952       .  S
Zn829       O834   2.011       .  S
Zn829       O836   2.026       .  S
Zn829       O840   2.010       .  S
Zn829      O1904   1.959   1_455  S
Zn830       O835   2.043       .  S
Zn830       O838   2.012       .  S
Zn830       O841   2.036       .  S
Zn830       O832   1.968       .  S
Zn831       O839   2.029       .  S
Zn831       O842   2.042       .  S
Zn831       O843   2.040       .  S
Zn831      O1904   1.969   1_455  S
O832      Zn1901   1.961       .  S
O832      Zn1903   1.957       .  S
O833        C845   1.270       .  A
O834       C1918   1.274   1_455  A
O835        C847   1.276       .  A
O836       C1917   1.274   1_455  A
O837        C847   1.271       .  A
O838        C846   1.275       .  A
O839       C1920   1.275   1_455  A
O840        C849   1.272       .  A
O841        C848   1.276       .  A
O842        C849   1.277       .  A
O843       C1922   1.278   1_455  A
O844        C850   1.269       .  A
C845       O1908   1.273       .  A
C845       C2026   1.476       .  S
C846       O1906   1.270       .  A
C846       C2141   1.469       .  S
C847       C1049   1.477       .  S
C848       O1911   1.275       .  A
C848       C2024   1.491       .  S
C849       C1053   1.478       .  S
C850       O1915   1.276       .  A
C850       C2138   1.469       .  S
Zn851       O856   1.996       .  S
Zn851       O860   1.980       .  S
Zn851       O867   1.991       .  S
Zn852       O857   2.013       .  S
Zn852       O859   2.011       .  S
Zn852       O863   2.005       .  S
Zn852       O855   1.949       .  S
Zn853       O858   2.017       .  S
Zn853       O861   2.014       .  S
Zn853       O864   2.026       .  S
Zn854       O862   2.017       .  S
Zn854       O865   1.997       .  S
Zn854       O866   2.014       .  S
Zn854       O855   1.955       .  S
O857        C869   1.274       .  A
O858        C870   1.275       .  A
O859        C868   1.271       .  A
O860        C870   1.268       .  A
O862        C871   1.274       .  A
O863        C872   1.274       .  A
O865        C872   1.270       .  A
O866        C873   1.273       .  A
C868       C1062   1.479       .  S
C869        C988   1.490       .  S
C870       C1042   1.465       .  S
C871       C1058   1.484       .  S
C872       C1045   1.468       .  S
C873        C986   1.478       .  S
Zn874       O879   1.995       .  S
Zn874       O883   2.015       .  S
Zn874       O890   2.006       .  S
Zn874       O878   1.956       .  S
Zn875       O880   2.025       .  S
Zn875       O882   2.006       .  S
Zn875       O886   2.027       .  S
Zn875       O878   1.957       .  S
Zn876       O881   2.029       .  S
Zn876       O884   2.025       .  S
Zn876       O887   2.014       .  S
Zn876       O878   1.958       .  S
Zn877       O885   1.991       .  S
Zn877       O888   2.019       .  S
Zn877       O889   2.009       .  S
Zn877       O878   1.958       .  S
O879        C891   1.269       .  A
O880        C892   1.274       .  A
O881        C893   1.273       .  A
O882        C891   1.275       .  A
O883        C893   1.274       .  A
O884        C892   1.275       .  A
O885        C894   1.270       .  A
O886        C895   1.273       .  A
O887        C894   1.275       .  A
O888        C895   1.274       .  A
O889        C896   1.271       .  A
O890        C896   1.272       .  A
C891       C1041   1.468       .  S
C892       C1021   1.489       .  S
C893       C1050   1.481       .  S
C894       C1046   1.466       .  S
C895       C1054   1.481       .  S
C896       C1019   1.476       .  S
N897        C902   1.354   1_655  A
N897        C901   1.356   1_655  A
N897        H929   1.040       .  S
N898        C905   1.354       .  A
N898        C906   1.352       .  A
N899        C904   1.356   1_655  A
N899        C903   1.354   1_655  A
N899        H930   1.040       .  S
N900        C907   1.353       .  A
N900        C908   1.354       .  A
C901        C909   1.385       .  A
C901        C917   1.414       .  A
C902        C918   1.419   1_455  A
C902        C910   1.389       .  A
C903        C911   1.387       .  A
C904        C912   1.385       .  A
C905        C913   1.384   1_455  A
C906        C920   1.414       .  A
C906        C914   1.386   1_455  A
C907        C915   1.387       .  A
C908        C916   1.384       .  A
C908        C919   1.413       .  A
C909        C910   1.374       .  A
C909        H921   1.081       .  S
C910        H922   1.082       .  S
C911        C912   1.375       .  A
C911        H923   1.082       .  S
C912        H924   1.077       .  S
C913        C914   1.372       .  A
C913        H925   1.078       .  S
C914        H926   1.082       .  S
C915        C916   1.371       .  A
C915        H927   1.082       .  S
C916        H928   1.078       .  S
C917       C1039   1.463       .  S
C919       C1037   1.463   1_655  S
N931        C936   1.353   1_455  A
N931        C935   1.357   1_455  A
N931        H963   1.039       .  S
N932        C939   1.353       .  A
N932        C940   1.352       .  A
N933        C938   1.354   1_455  A
N933        C937   1.353   1_455  A
N933        H964   1.040       .  S
N934        C941   1.352       .  A
N934        C942   1.356       .  A
C935        C943   1.385       .  A
C935        C951   1.416   1_655  A
C936        C952   1.416   1_655  A
C936        C944   1.387       .  A
C937        C945   1.387       .  A
C937        C954   1.413   1_655  A
C938        C946   1.386       .  A
C939        C947   1.384       .  A
C940        C954   1.414       .  A
C940        C948   1.386       .  A
C941        C949   1.388       .  A
C941        C952   1.418       .  A
C942        C950   1.384       .  A
C942        C953   1.414       .  A
C943        C944   1.375       .  A
C943        H955   1.078       .  S
C944        H956   1.082       .  S
C945        C946   1.375       .  A
C945        H957   1.082       .  S
C946        H958   1.079       .  S
C947        C948   1.371       .  A
C947        H959   1.077       .  S
C948        H960   1.082       .  S
C949        C950   1.373       .  A
C949        H961   1.082       .  S
C950        H962   1.080       .  S
C951       C1038   1.463       .  S
C952       C1920   1.481   1_455  S
C953       C1040   1.463       .  S
C954       C1917   1.482   1_455  S
N965        C970   1.353       .  A
N965        C969   1.356       .  A
N965        H997   1.038       .  S
N966        C973   1.357       .  A
N966        C974   1.354       .  A
N967        C972   1.356       .  A
N967        C971   1.354       .  A
N967        H998   1.040       .  S
N968        C975   1.352       .  A
N968        C976   1.354       .  A
C969        C977   1.386       .  A
C969        C985   1.415   1_565  A
C970        C978   1.387       .  A
C971        C979   1.388       .  A
C971        C988   1.418       .  A
C972        C980   1.384       .  A
C973        C981   1.384       .  A
C974        C982   1.387       .  A
C975        C983   1.386       .  A
C975        C986   1.414       .  A
C976        C984   1.384       .  A
C976        C987   1.413   1_565  A
C977        C978   1.374       .  A
C977        H989   1.079       .  S
C978        H990   1.082       .  S
C979        C980   1.375       .  A
C979        H991   1.082       .  S
C980        H992   1.080       .  S
C981        C982   1.374       .  A
C981        H993   1.078       .  S
C982        H994   1.082       .  S
C983        C984   1.372       .  A
C983        H995   1.083       .  S
C984        H996   1.078       .  S
C985       C1034   1.467       .  S
C987       C1035   1.462       .  S
N999       C1004   1.355       .  A
N999       C1003   1.352       .  A
N999       H1031   1.038       .  S
N1000      C1007   1.352       .  A
N1000      C1008   1.355       .  A
N1001      C1006   1.355       .  A
N1001      C1005   1.358       .  A
N1001      H1032   1.040       .  S
N1002      C1009   1.355       .  A
N1002      C1010   1.352       .  A
C1003      C1011   1.387       .  A
C1003      C1019   1.415       .  A
C1004      C1020   1.415       .  A
C1004      C1012   1.386       .  A
C1005      C1013   1.384       .  A
C1006      C1021   1.421       .  A
C1006      C1014   1.388       .  A
C1007      C1019   1.414       .  A
C1007      C1015   1.387       .  A
C1008      C1022   1.413       .  A
C1008      C1016   1.384       .  A
C1009      C1017   1.384       .  A
C1010      C1018   1.387       .  A
C1010      C1021   1.417       .  A
C1011      C1012   1.375       .  A
C1011      H1023   1.082       .  S
C1012      H1024   1.079       .  S
C1013      C1014   1.377       .  A
C1013      H1025   1.079       .  S
C1014      H1026   1.082       .  S
C1015      C1016   1.370       .  A
C1015      H1027   1.083       .  S
C1016      H1028   1.077       .  S
C1017      C1018   1.372       .  A
C1017      H1029   1.078       .  S
C1018      H1030   1.082       .  S
C1020      C1036   1.461       .  S
C1022      C1033   1.468       .  S
C1037      C1038   1.215       .  T
C1039      C1040   1.215       .  T
C1041      C1042   1.338       .  D
C1041      H1043   1.087       .  S
C1042      H1044   1.087       .  S
C1045      C1046   1.340       .  D
C1045      H1047   1.087       .  S
C1046      H1048   1.087       .  S
C1049      C1050   1.345       .  D
C1049      H1051   1.087       .  S
C1050      H1052   1.086       .  S
C1053      C1054   1.345       .  D
C1053      H1055   1.087       .  S
C1054      H1056   1.086       .  S
C1057      C1058   1.347       .  D
C1057      H1059   1.087       .  S
C1061      C1062   1.343       .  D
C1062      H1064   1.087       .  S
C1065      C1066   1.339   1_455  D
C1065      H1067   1.087       .  S
C1066      C1922   1.472       .  S
C1066      H2140   1.087       .  S
H1068      C2138   1.087       .  S
C1069      C1918   1.469       .  S
C1069      C1070   1.341   1_655  D
C1069      H2143   1.087       .  S
C1070      H1072   1.087       .  S
H1071      C2141   1.087       .  S
Zn1073     O1078   1.994       .  S
Zn1073     O1082   2.024       .  S
Zn1073     O1089   2.014       .  S
Zn1074     O1079   1.990       .  S
Zn1074     O1081   1.981       .  S
Zn1074     O1085   1.980       .  S
Zn1074     O1345   1.949       .  S
Zn1075     O1080   2.006       .  S
Zn1075     O1083   2.017       .  S
Zn1075     O1086   2.002       .  S
Zn1076     O1084   1.985       .  S
Zn1076     O1087   2.012       .  S
Zn1076     O1088   1.993       .  S
Zn1076     O1077   1.956       .  S
O1077     Zn1342   1.952   1_554  S
O1079      C1359   1.269       .  A
O1080      C1092   1.271       .  A
O1081      C1090   1.267       .  A
O1082      C1360   1.274       .  A
O1084      C1093   1.268       .  A
O1085      C1362   1.268       .  A
O1087      C1094   1.271       .  A
O1088      C1095   1.271       .  A
C1090      C1333   1.468       .  S
C1091      O1347   1.272   1_554  A
C1091      C1186   1.481       .  S
C1092      O1350   1.278   1_554  A
C1092      C1325   1.482       .  S
C1093      C1338   1.461       .  S
C1094      O1353   1.274   1_554  A
C1094      C1329   1.475       .  S
C1095      C1188   1.483       .  S
Zn1096     O1101   2.019       .  S
Zn1096     O1105   2.022       .  S
Zn1096     O1112   2.013       .  S
Zn1096     O1100   1.955       .  S
Zn1097     O1102   1.981       .  S
Zn1097     O1104   2.005       .  S
Zn1097     O1108   1.993       .  S
Zn1098     O1103   2.013       .  S
Zn1098     O1106   1.994       .  S
Zn1098     O1109   2.010       .  S
Zn1098     O1100   1.958       .  S
Zn1099     O1107   2.032       .  S
Zn1099     O1110   2.052       .  S
Zn1099     O1111   2.023       .  S
O1101      C1113   1.274       .  A
O1103      C1115   1.273       .  A
O1105      C1115   1.272       .  A
O1106      C1114   1.270       .  A
O1108      C1117   1.269       .  A
O1109      C1116   1.272       .  A
O1110      C1117   1.278       .  A
O1112      C1118   1.275   1_655  A
C1115      C1317   1.477       .  S
C1117      C1321   1.478       .  S
Zn1119     O1124   2.037       .  S
Zn1119     O1128   2.012       .  S
Zn1119     O1135   2.022       .  S
Zn1119     O1391   1.956       .  S
Zn1120     O1125   2.030       .  S
Zn1120     O1127   2.027       .  S
Zn1120     O1131   2.034       .  S
Zn1120     O1123   1.965   1_554  S
Zn1121     O1126   2.004       .  S
Zn1121     O1129   2.017       .  S
Zn1121     O1132   2.019       .  S
Zn1121     O1391   1.950       .  S
Zn1122     O1130   2.039       .  S
Zn1122     O1133   2.014       .  S
Zn1122     O1134   2.030       .  S
Zn1122     O1123   1.962   1_554  S
O1123     Zn1387   1.954       .  S
O1123     Zn1389   1.958       .  S
O1124      C1404   1.277       .  A
O1125      C1137   1.277   1_554  A
O1126      C1138   1.275       .  A
O1127      C1136   1.274       .  A
O1128      C1138   1.273       .  A
O1129      C1405   1.274       .  A
O1130      C1139   1.277   1_554  A
O1131      C1140   1.277       .  A
O1132      C1407   1.272       .  A
O1133      C1140   1.273       .  A
O1134      C1141   1.274   1_554  A
O1135      C1409   1.274       .  A
C1136      O1392   1.269   1_554  A
C1136      C1330   1.471       .  S
C1137      O1397   1.273       .  A
C1137      C1256   1.489       .  S
C1138      C1310   1.471       .  S
C1139      O1400   1.273       .  A
C1139      C1326   1.484       .  S
C1140      C1313   1.477       .  S
C1141      O1403   1.270       .  A
C1141      C1254   1.476       .  S
Zn1142     O1147   1.997       .  S
Zn1142     O1151   2.012       .  S
Zn1142     O1158   2.003       .  S
Zn1142     O1146   1.955       .  S
Zn1143     O1148   2.015       .  S
Zn1143     O1150   2.012       .  S
Zn1143     O1154   2.010       .  S
Zn1143     O1146   1.960       .  S
Zn1144     O1149   2.023       .  S
Zn1144     O1152   2.019       .  S
Zn1144     O1155   2.023       .  S
Zn1144     O1146   1.957       .  S
Zn1145     O1153   2.023       .  S
Zn1145     O1156   2.040       .  S
Zn1145     O1157   2.026       .  S
Zn1145     O1146   1.962       .  S
O1147      C1159   1.270       .  A
O1148      C1160   1.274       .  A
O1149      C1161   1.272       .  A
O1150      C1159   1.273       .  A
O1151      C1161   1.273       .  A
O1152      C1160   1.275       .  A
O1153      C1162   1.274       .  A
O1154      C1163   1.271       .  A
O1155      C1162   1.276       .  A
O1156      C1163   1.278       .  A
O1157      C1164   1.274       .  A
O1158      C1164   1.272       .  A
C1159      C1309   1.469       .  S
C1160      C1289   1.487       .  S
C1161      C1318   1.477       .  S
C1162      C1314   1.479       .  S
C1163      C1322   1.481       .  S
C1164      C1287   1.478       .  S
N1165      C1170   1.353       .  A
N1165      C1169   1.357       .  A
N1165      H1197   1.039       .  S
N1166      C1173   1.355       .  A
N1166      C1174   1.353       .  A
N1167      C1172   1.359       .  A
N1167      C1171   1.356       .  A
N1167      H1198   1.035       .  S
N1168      C1175   1.349       .  A
N1168      C1176   1.351       .  A
C1169      C1177   1.386       .  A
C1169      C1185   1.417       .  A
C1170      C1186   1.417       .  A
C1170      C1178   1.388       .  A
C1171      C1179   1.388       .  A
C1171      C1456   1.424       .  A
C1172      C1723   1.420       .  A
C1172      C1180   1.385       .  A
C1173      C1721   1.415   1_545  A
C1173      C1181   1.384       .  A
C1174      C1188   1.418       .  A
C1174      C1182   1.387       .  A
C1175      C1183   1.386       .  A
C1175      C1454   1.408       .  A
C1176      C1184   1.384       .  A
C1176      C1187   1.407       .  A
C1177      C1178   1.376       .  A
C1177      H1189   1.079       .  S
C1178      H1190   1.082       .  S
C1179      C1180   1.378       .  A
C1179      H1191   1.082       .  S
C1180      H1192   1.080       .  S
C1181      C1182   1.373       .  A
C1181      H1193   1.079       .  S
C1182      H1194   1.082       .  S
C1183      C1184   1.370       .  A
C1183      H1195   1.082       .  S
C1184      H1196   1.077       .  S
C1185      C1709   1.416       .  A
C1185      C1307   1.467       .  S
C1186      C1443   1.418   1_554  A
C1187      C1708   1.417       .  A
C1187      C1305   1.462       .  S
C1188      C1439   1.415   1_554  A
N1199      C1204   1.354       .  A
N1199      C1203   1.357       .  A
N1199      H1231   1.038       .  S
N1200      C1207   1.354       .  A
N1200      C1208   1.351       .  A
N1201      C1206   1.356       .  A
N1201      C1205   1.353       .  A
N1201      H1232   1.040       .  S
N1202      C1209   1.352       .  A
N1202      C1210   1.356       .  A
C1203      C1211   1.385       .  A
C1203      C1219   1.419       .  A
C1204      C1220   1.418       .  A
C1204      C1212   1.387       .  A
C1205      C1213   1.388       .  A
C1205      C1222   1.415       .  A
C1206      C1757   1.414   1_545  A
C1206      C1214   1.385       .  A
C1207      C1755   1.411       .  A
C1207      C1215   1.385       .  A
C1208      C1222   1.414       .  A
C1208      C1216   1.388       .  A
C1209      C1217   1.388       .  A
C1209      C1220   1.418       .  A
C1210      C1218   1.384       .  A
C1210      C1221   1.414       .  A
C1211      C1212   1.377       .  A
C1211      H1223   1.077       .  S
C1212      H1224   1.082       .  S
C1213      C1214   1.374       .  A
C1213      H1225   1.082       .  S
C1214      H1226   1.079       .  S
C1215      C1216   1.371       .  A
C1215      H1227   1.080       .  S
C1216      H1228   1.082       .  S
C1217      C1218   1.372       .  A
C1217      H1229   1.082       .  S
C1218      H1230   1.079       .  S
C1219      C1743   1.412       .  A
C1219      C1306   1.463       .  S
C1221      C1742   1.416       .  A
C1221      C1308   1.467       .  S
N1233      C1238   1.353       .  A
N1233      C1237   1.356       .  A
N1233      H1265   1.038       .  S
N1234      C1241   1.356       .  A
N1234      C1242   1.353       .  A
N1235      C1240   1.356       .  A
N1235      C1239   1.354       .  A
N1235      H1266   1.039       .  S
N1236      C1243   1.352       .  A
N1236      C1244   1.353       .  A
C1237      C1245   1.386       .  A
C1237      C1253   1.417       .  A
C1238      C1522   1.415       .  A
C1238      C1246   1.387       .  A
C1239      C1247   1.389       .  A
C1239      C1256   1.419   1_554  A
C1240      C1791   1.414       .  A
C1240      C1248   1.384       .  A
C1241      C1789   1.415       .  A
C1241      C1249   1.383       .  A
C1242      C1524   1.419       .  A
C1242      C1250   1.388       .  A
C1243      C1251   1.386       .  A
C1243      C1254   1.412   1_554  A
C1244      C1252   1.385       .  A
C1244      C1255   1.412       .  A
C1245      C1246   1.376       .  A
C1245      H1257   1.079       .  S
C1246      H1258   1.083       .  S
C1247      C1248   1.374       .  A
C1247      H1259   1.082       .  S
C1248      H1260   1.080       .  S
C1249      C1250   1.373       .  A
C1249      H1261   1.078       .  S
C1250      H1262   1.082       .  S
C1251      C1252   1.372       .  A
C1251      H1263   1.082       .  S
C1252      H1264   1.078       .  S
C1253      C1777   1.417       .  A
C1253      C1302   1.466       .  S
C1254      C1506   1.414       .  A
C1255      C1776   1.415       .  A
C1255      C1303   1.461       .  S
C1256      C1510   1.421       .  A
N1267      C1272   1.355       .  A
N1267      C1271   1.352       .  A
N1267      H1299   1.038       .  S
N1268      C1275   1.353       .  A
N1268      C1276   1.354       .  A
N1269      C1274   1.354       .  A
N1269      C1273   1.357       .  A
N1269      H1300   1.040       .  S
N1270      C1277   1.354       .  A
N1270      C1278   1.352       .  A
C1271      C1279   1.387       .  A
C1271      C1287   1.415       .  A
C1272      C1288   1.415       .  A
C1272      C1280   1.386       .  A
C1273      C1281   1.384       .  A
C1273      C1826   1.416       .  A
C1274      C1289   1.419       .  A
C1274      C1282   1.388       .  A
C1275      C1287   1.415       .  A
C1275      C1283   1.386       .  A
C1276      C1290   1.414       .  A
C1276      C1284   1.384       .  A
C1277      C1285   1.383       .  A
C1277      C1824   1.412       .  A
C1278      C1286   1.388       .  A
C1278      C1289   1.416       .  A
C1279      C1280   1.376       .  A
C1279      H1291   1.083       .  S
C1280      H1292   1.079       .  S
C1281      C1282   1.376       .  A
C1281      H1293   1.079       .  S
C1282      H1294   1.082       .  S
C1283      C1284   1.371       .  A
C1283      H1295   1.082       .  S
C1284      H1296   1.077       .  S
C1285      C1286   1.372       .  A
C1285      H1297   1.078       .  S
C1286      H1298   1.082       .  S
C1288      C1813   1.413   1_545  A
C1288      C1304   1.462       .  S
C1290      C1809   1.419   1_545  A
C1290      C1301   1.467       .  S
C1301      C1838   1.217       .  T
C1302      C1837   1.217       .  T
C1303      C1840   1.214       .  T
C1304      C1839   1.214       .  T
C1305      C1306   1.215       .  T
C1307      C1308   1.217       .  T
C1309      C1310   1.342       .  D
C1309      H1311   1.087       .  S
C1310      H1312   1.087       .  S
C1313      C1314   1.344       .  D
C1313      H1315   1.087       .  S
C1314      H1316   1.087       .  S
C1317      C1318   1.346       .  D
C1317      H1319   1.087       .  S
C1318      H1320   1.087       .  S
C1321      C1322   1.341       .  D
C1321      H1323   1.087       .  S
C1322      H1324   1.087       .  S
C1325      C1326   1.344   1_554  D
C1325      H1327   1.087       .  S
C1326      H1596   1.087       .  S
H1328      C1594   1.087       .  S
C1329      C1330   1.342       .  D
C1329      H1599   1.087       .  S
C1330      H1332   1.087   1_554  S
H1331      C1597   1.087       .  S
C1333      C1334   1.338       .  D
C1333      H1335   1.087       .  S
C1337      C1338   1.339       .  D
C1338      H1340   1.087       .  S
Zn1341     O1346   2.030       .  S
Zn1341     O1350   2.057       .  S
Zn1341     O1357   2.042       .  S
Zn1342     O1347   2.013       .  S
Zn1342     O1349   2.000       .  S
Zn1342     O1353   2.011       .  S
Zn1343     O1348   2.013       .  S
Zn1343     O1351   2.020       .  S
Zn1343     O1354   2.012       .  S
Zn1344     O1352   2.046       .  S
Zn1344     O1355   2.063       .  S
Zn1344     O1356   2.043       .  S
Zn1344     O1345   1.975       .  S
O1348      C1360   1.271       .  A
O1349      C1358   1.271       .  A
O1352      C1361   1.278       .  A
O1355      C1362   1.279       .  A
O1356      C1363   1.278       .  A
C1358      C1601   1.471       .  S
C1359      C1454   1.471       .  S
C1360      C1593   1.477       .  S
C1361      C1606   1.471       .  S
C1362      C1597   1.476       .  S
C1363      C1456   1.493       .  S
Zn1364     O1369   1.993       .  S
Zn1364     O1373   1.999       .  S
Zn1364     O1380   1.983       .  S
Zn1364     O1368   1.948       .  S
Zn1365     O1370   2.007       .  S
Zn1365     O1372   2.020       .  S
Zn1365     O1376   2.019       .  S
Zn1366     O1371   2.027       .  S
Zn1366     O1374   1.998       .  S
Zn1366     O1377   2.012       .  S
Zn1366     O1368   1.959       .  S
Zn1367     O1375   2.010       .  S
Zn1367     O1378   2.017       .  S
Zn1367     O1379   2.013       .  S
O1369      C1381   1.270   1_655  A
O1371      C1383   1.274       .  A
O1373      C1383   1.270       .  A
O1374      C1382   1.270       .  A
O1376      C1385   1.275       .  A
O1377      C1384   1.273   1_655  A
O1378      C1385   1.271       .  A
O1380      C1386   1.268       .  A
C1383      C1585   1.474       .  S
C1385      C1589   1.480       .  S
Zn1387     O1392   1.992       .  S
Zn1387     O1396   1.992       .  S
Zn1387     O1403   1.991       .  S
Zn1388     O1393   2.014       .  S
Zn1388     O1395   2.007       .  S
Zn1388     O1399   1.990       .  S
Zn1388     O1391   1.951       .  S
Zn1389     O1394   2.010       .  S
Zn1389     O1397   2.017       .  S
Zn1389     O1400   2.023       .  S
Zn1390     O1398   2.019       .  S
Zn1390     O1401   1.998       .  S
Zn1390     O1402   2.014       .  S
Zn1390     O1391   1.960       .  S
O1393      C1405   1.273       .  A
O1394      C1406   1.274       .  A
O1395      C1404   1.269       .  A
O1396      C1406   1.268       .  A
O1398      C1407   1.274       .  A
O1399      C1408   1.273       .  A
O1401      C1408   1.269       .  A
O1402      C1409   1.273       .  A
C1404      C1598   1.481       .  S
C1405      C1524   1.489       .  S
C1406      C1578   1.468       .  S
C1407      C1594   1.478       .  S
C1408      C1581   1.466       .  S
C1409      C1522   1.479       .  S
Zn1410     O1415   1.989       .  S
Zn1410     O1419   2.013       .  S
Zn1410     O1426   2.014       .  S
Zn1410     O1414   1.957       .  S
Zn1411     O1416   2.041       .  S
Zn1411     O1418   2.019       .  S
Zn1411     O1422   2.052       .  S
Zn1411     O1414   1.970       .  S
Zn1412     O1417   2.021       .  S
Zn1412     O1420   2.017       .  S
Zn1412     O1423   2.008       .  S
Zn1412     O1414   1.959       .  S
Zn1413     O1421   1.974       .  S
Zn1413     O1424   1.993       .  S
Zn1413     O1425   2.004       .  S
Zn1413     O1414   1.948       .  S
O1415      C1427   1.270       .  A
O1416      C1428   1.276       .  A
O1417      C1429   1.272       .  A
O1418      C1427   1.276       .  A
O1419      C1429   1.273       .  A
O1420      C1428   1.274       .  A
O1421      C1430   1.268       .  A
O1422      C1431   1.277       .  A
O1423      C1430   1.274       .  A
O1424      C1431   1.269       .  A
O1425      C1432   1.270       .  A
O1426      C1432   1.271       .  A
C1427      C1577   1.467       .  S
C1428      C1557   1.489       .  S
C1429      C1586   1.477       .  S
C1430      C1582   1.461       .  S
C1431      C1590   1.476       .  S
C1432      C1555   1.476       .  S
N1433      C1438   1.351       .  A
N1433      C1437   1.353       .  A
N1433      H1465   1.040       .  S
N1434      C1441   1.358       .  A
N1434      C1442   1.355       .  A
N1435      C1440   1.356       .  A
N1435      C1439   1.354       .  A
N1435      H1466   1.040       .  S
N1436      C1443   1.352       .  A
N1436      C1444   1.356       .  A
C1437      C1445   1.386       .  A
C1437      C1453   1.410       .  A
C1438      C1454   1.410       .  A
C1438      C1446   1.387       .  A
C1439      C1447   1.387       .  A
C1440      C1991   1.414   1_545  A
C1440      C1448   1.384       .  A
C1441      C1989   1.419       .  A
C1441      C1449   1.384       .  A
C1442      C1456   1.423       .  A
C1442      C1450   1.388       .  A
C1443      C1451   1.389       .  A
C1444      C1452   1.384       .  A
C1444      C1455   1.413       .  A
C1445      C1446   1.375       .  A
C1445      H1457   1.080       .  S
C1446      H1458   1.082       .  S
C1447      C1448   1.373       .  A
C1447      H1459   1.082       .  S
C1448      H1460   1.076       .  S
C1449      C1450   1.376       .  A
C1449      H1461   1.080       .  S
C1450      H1462   1.082       .  S
C1451      C1452   1.373       .  A
C1451      H1463   1.082       .  S
C1452      H1464   1.081       .  S
C1453      C1977   1.415       .  A
C1453      C1575   1.461       .  S
C1455      C1976   1.415       .  A
C1455      C1573   1.467       .  S
N1467      C1472   1.354       .  A
N1467      C1471   1.358       .  A
N1467      H1499   1.039       .  S
N1468      C1475   1.353       .  A
N1468      C1476   1.352       .  A
N1469      C1474   1.354       .  A
N1469      C1473   1.352       .  A
N1469      H1500   1.039       .  S
N1470      C1477   1.354       .  A
N1470      C1478   1.356       .  A
C1471      C1479   1.385       .  A
C1471      C1487   1.417       .  A
C1472      C1488   1.421       .  A
C1472      C1480   1.389       .  A
C1473      C1481   1.388       .  A
C1473      C1490   1.414       .  A
C1474      C2025   1.412   1_545  A
C1474      C1482   1.386       .  A
C1475      C2023   1.414   1_545  A
C1475      C1483   1.384       .  A
C1476      C1490   1.413       .  A
C1476      C1484   1.385       .  A
C1477      C1485   1.389       .  A
C1477      C1488   1.420       .  A
C1478      C1486   1.383       .  A
C1478      C1489   1.414       .  A
C1479      C1480   1.376       .  A
C1479      H1491   1.081       .  S
C1480      H1492   1.082       .  S
C1481      C1482   1.373       .  A
C1481      H1493   1.082       .  S
C1482      H1494   1.080       .  S
C1483      C1484   1.371       .  A
C1483      H1495   1.076       .  S
C1484      H1496   1.082       .  S
C1485      C1486   1.373       .  A
C1485      H1497   1.081       .  S
C1486      H1498   1.079       .  S
C1487      C2011   1.414       .  A
C1487      C1574   1.467       .  S
C1489      C2010   1.411       .  A
C1489      C1576   1.462       .  S
N1501      C1506   1.352       .  A
N1501      C1505   1.354       .  A
N1501      H1533   1.039       .  S
N1502      C1509   1.357       .  A
N1502      C1510   1.354       .  A
N1503      C1508   1.358       .  A
N1503      C1507   1.354       .  A
N1503      H1534   1.040       .  S
N1504      C1511   1.353       .  A
N1504      C1512   1.354       .  A
C1505      C1513   1.386       .  A
C1505      C1521   1.412       .  A
C1506      C1514   1.388       .  A
C1507      C1515   1.390       .  A
C1507      C1524   1.422       .  A
C1508      C2059   1.416       .  A
C1508      C1516   1.384       .  A
C1509      C2057   1.418       .  A
C1509      C1517   1.384       .  A
C1510      C1518   1.387       .  A
C1511      C1519   1.386       .  A
C1511      C1522   1.415       .  A
C1512      C1520   1.385       .  A
C1512      C1523   1.414       .  A
C1513      C1514   1.375       .  A
C1513      H1525   1.080       .  S
C1514      H1526   1.083       .  S
C1515      C1516   1.376       .  A
C1515      H1527   1.082       .  S
C1516      H1528   1.080       .  S
C1517      C1518   1.375       .  A
C1517      H1529   1.078       .  S
C1518      H1530   1.082       .  S
C1519      C1520   1.370       .  A
C1519      H1531   1.082       .  S
C1520      H1532   1.078       .  S
C1521      C2045   1.416       .  A
C1521      C1570   1.463       .  S
C1523      C2044   1.419       .  A
C1523      C1571   1.465       .  S
N1535      C1540   1.354       .  A
N1535      C1539   1.351       .  A
N1535      H1567   1.039       .  S
N1536      C1543   1.352       .  A
N1536      C1544   1.353       .  A
N1537      C1542   1.355       .  A
N1537      C1541   1.358       .  A
N1537      H1568   1.039       .  S
N1538      C1545   1.356       .  A
N1538      C1546   1.353       .  A
C1539      C1547   1.387       .  A
C1539      C1555   1.412       .  A
C1540      C1556   1.413   1_545  A
C1540      C1548   1.387       .  A
C1541      C1549   1.385       .  A
C1541      C2094   1.418       .  A
C1542      C1557   1.422       .  A
C1542      C1550   1.389       .  A
C1543      C1555   1.413       .  A
C1543      C1551   1.386       .  A
C1544      C1558   1.412   1_545  A
C1544      C1552   1.384       .  A
C1545      C1553   1.384       .  A
C1545      C2092   1.416       .  A
C1546      C1554   1.388       .  A
C1546      C1557   1.419       .  A
C1547      C1548   1.376       .  A
C1547      H1559   1.082       .  S
C1548      H1560   1.080       .  S
C1549      C1550   1.378       .  A
C1549      H1561   1.080       .  S
C1550      H1562   1.082       .  S
C1551      C1552   1.370       .  A
C1551      H1563   1.082       .  S
C1552      H1564   1.077       .  S
C1553      C1554   1.374       .  A
C1553      H1565   1.079       .  S
C1554      H1566   1.082       .  S
C1556      C2081   1.416       .  A
C1556      C1572   1.463       .  S
C1558      C2077   1.421       .  A
C1558      C1569   1.467       .  S
C1569      C2106   1.218   1_565  T
C1570      C2105   1.215       .  T
C1571      C2108   1.216       .  T
C1572      C2107   1.215       .  T
C1573      C1574   1.217       .  T
C1575      C1576   1.214       .  T
C1577      C1578   1.339       .  D
C1577      H1579   1.087       .  S
C1578      H1580   1.087       .  S
C1581      C1582   1.339       .  D
C1581      H1583   1.087       .  S
C1582      H1584   1.087       .  S
C1585      C1586   1.343       .  D
C1585      H1587   1.087       .  S
C1586      H1588   1.087       .  S
C1589      C1590   1.342       .  D
C1589      H1591   1.087       .  S
C1590      H1592   1.087       .  S
C1593      C1594   1.345       .  D
C1593      H1595   1.087       .  S
C1597      C1598   1.340       .  D
C1598      H1600   1.087       .  S
C1601      C1602   1.341       .  D
C1601      H1603   1.087       .  S
C1605      C1606   1.339       .  D
C1606      H1608   1.087       .  S
Zn1609     O1614   2.002       .  S
Zn1609     O1618   2.026       .  S
Zn1609     O1625   2.009       .  S
Zn1610     O1615   2.012       .  S
Zn1610     O1617   2.006       .  S
Zn1610     O1621   2.012       .  S
Zn1610     O1881   1.959       .  S
Zn1611     O1616   2.012       .  S
Zn1611     O1619   2.026       .  S
Zn1611     O1622   2.005       .  S
Zn1612     O1620   1.982       .  S
Zn1612     O1623   2.014       .  S
Zn1612     O1624   1.993       .  S
Zn1612     O1613   1.956       .  S
O1613     Zn1878   1.952   1_554  S
O1615      C1895   1.272       .  A
O1616      C1628   1.272       .  A
O1617      C1626   1.271       .  A
O1618      C1896   1.274       .  A
O1620      C1629   1.269       .  A
O1621      C1898   1.274       .  A
O1623      C1630   1.271       .  A
O1624      C1631   1.270       .  A
C1626      C1869   1.474       .  S
C1627      O1883   1.271   1_554  A
C1627      C1722   1.483       .  S
C1628      O1886   1.278   1_554  A
C1628      C1861   1.481       .  S
C1629      C1874   1.463       .  S
C1630      O1889   1.273   1_554  A
C1630      C1865   1.477       .  S
C1631      C1724   1.486       .  S
Zn1632     O1637   2.021       .  S
Zn1632     O1641   2.027       .  S
Zn1632     O1648   2.012       .  S
Zn1632     O1636   1.956       .  S
Zn1633     O1638   1.998       .  S
Zn1633     O1640   2.018       .  S
Zn1633     O1644   2.005       .  S
Zn1634     O1639   2.012       .  S
Zn1634     O1642   1.985       .  S
Zn1634     O1645   2.007       .  S
Zn1634     O1636   1.957       .  S
Zn1635     O1643   2.037       .  S
Zn1635     O1646   2.046       .  S
Zn1635     O1647   2.032       .  S
O1637      C1649   1.274   1_655  A
O1639      C1651   1.272       .  A
O1641      C1651   1.273       .  A
O1642      C1650   1.268       .  A
O1644      C1653   1.271       .  A
O1645      C1652   1.272       .  A
O1646      C1653   1.277       .  A
O1648      C1654   1.275   1_655  A
C1651      C1853   1.478       .  S
C1653      C1857   1.479       .  S
Zn1655     O1660   1.998       .  S
Zn1655     O1664   1.979       .  S
Zn1655     O1671   1.995       .  S
Zn1655     O1927   1.948       .  S
Zn1656     O1661   2.026       .  S
Zn1656     O1663   2.031       .  S
Zn1656     O1667   2.031       .  S
Zn1656     O1659   1.967   1_554  S
Zn1657     O1662   2.016       .  S
Zn1657     O1665   2.018       .  S
Zn1657     O1668   2.025       .  S
Zn1657     O1927   1.953       .  S
Zn1658     O1666   2.031       .  S
Zn1658     O1669   2.006       .  S
Zn1658     O1670   2.032       .  S
Zn1658     O1659   1.960   1_554  S
O1659     Zn1923   1.955       .  S
O1659     Zn1925   1.960       .  S
O1660      C1940   1.270       .  A
O1661      C1673   1.275   1_554  A
O1662      C1674   1.275       .  A
O1663      C1672   1.275       .  A
O1664      C1674   1.268       .  A
O1665      C1941   1.275       .  A
O1666      C1675   1.276   1_554  A
O1667      C1676   1.276       .  A
O1668      C1943   1.272       .  A
O1669      C1676   1.272       .  A
O1670      C1677   1.274   1_554  A
O1671      C1945   1.270       .  A
C1672      O1928   1.270   1_554  A
C1672      C1866   1.473       .  S
C1673      O1933   1.274       .  A
C1673      C1792   1.488       .  S
C1674      C1846   1.465       .  S
C1675      O1936   1.273       .  A
C1675      C1862   1.483       .  S
C1676      C1849   1.474       .  S
C1677      O1939   1.271       .  A
C1677      C1790   1.480       .  S
Zn1678     O1683   1.988       .  S
Zn1678     O1687   2.014       .  S
Zn1678     O1694   2.005       .  S
Zn1678     O1682   1.961       .  S
Zn1679     O1684   2.022       .  S
Zn1679     O1686   2.006       .  S
Zn1679     O1690   2.022       .  S
Zn1679     O1682   1.957       .  S
Zn1680     O1685   2.030       .  S
Zn1680     O1688   2.033       .  S
Zn1680     O1691   2.023       .  S
Zn1680     O1682   1.957       .  S
Zn1681     O1689   2.013       .  S
Zn1681     O1692   2.030       .  S
Zn1681     O1693   2.015       .  S
Zn1681     O1682   1.959       .  S
O1683      C1695   1.268       .  A
O1684      C1696   1.275       .  A
O1685      C1697   1.273       .  A
O1686      C1695   1.274       .  A
O1687      C1697   1.273       .  A
O1688      C1696   1.276       .  A
O1689      C1698   1.273       .  A
O1690      C1699   1.272       .  A
O1691      C1698   1.277       .  A
O1692      C1699   1.276       .  A
O1693      C1700   1.272       .  A
O1694      C1700   1.272       .  A
C1695      C1845   1.466       .  S
C1696      C1825   1.491       .  S
C1697      C1854   1.479       .  S
C1698      C1850   1.476       .  S
C1699      C1858   1.482       .  S
C1700      C1823   1.475       .  S
N1701      C1706   1.353       .  A
N1701      C1705   1.357       .  A
N1701      H1733   1.039       .  S
N1702      C1709   1.356       .  A
N1702      C1710   1.353       .  A
N1703      C1708   1.358       .  A
N1703      C1707   1.353       .  A
N1703      H1734   1.040       .  S
N1704      C1711   1.353       .  A
N1704      C1712   1.353       .  A
C1705      C1713   1.385       .  A
C1705      C1721   1.416       .  A
C1706      C1722   1.416       .  A
C1706      C1714   1.387       .  A
C1707      C1715   1.389       .  A
C1707      C1992   1.420       .  A
C1708      C1716   1.384       .  A
C1709      C1717   1.384       .  A
C1710      C1724   1.419       .  A
C1710      C1718   1.387       .  A
C1711      C1719   1.385       .  A
C1711      C1990   1.411       .  A
C1712      C1720   1.384       .  A
C1712      C1723   1.413   1_565  A
C1713      C1714   1.375       .  A
C1713      H1725   1.078       .  S
C1714      H1726   1.082       .  S
C1715      C1716   1.377       .  A
C1715      H1727   1.082       .  S
C1716      H1728   1.079       .  S
C1717      C1718   1.371       .  A
C1717      H1729   1.077       .  S
C1718      H1730   1.082       .  S
C1719      C1720   1.367       .  A
C1719      H1731   1.082       .  S
C1720      H1732   1.074       .  S
C1721      C1843   1.465       .  S
C1722      C1979   1.418   1_554  A
C1723      C1841   1.466       .  S
C1724      C1975   1.416   1_554  A
N1735      C1740   1.355       .  A
N1735      C1739   1.358       .  A
N1735      H1767   1.040       .  S
N1736      C1743   1.354       .  A
N1736      C1744   1.352       .  A
N1737      C1742   1.356       .  A
N1737      C1741   1.354       .  A
N1737      H1768   1.039       .  S
N1738      C1745   1.352       .  A
N1738      C1746   1.356       .  A
C1739      C1747   1.384       .  A
C1739      C1755   1.419   1_565  A
C1740      C1756   1.417       .  A
C1740      C1748   1.386       .  A
C1741      C1749   1.387       .  A
C1741      C1758   1.417       .  A
C1742      C1750   1.385       .  A
C1743      C1751   1.385       .  A
C1744      C1758   1.415       .  A
C1744      C1752   1.387       .  A
C1745      C1753   1.388       .  A
C1745      C1756   1.417       .  A
C1746      C1754   1.383       .  A
C1746      C1757   1.414       .  A
C1747      C1748   1.376       .  A
C1747      H1759   1.075       .  S
C1748      H1760   1.082       .  S
C1749      C1750   1.375       .  A
C1749      H1761   1.082       .  S
C1750      H1762   1.078       .  S
C1751      C1752   1.371       .  A
C1751      H1763   1.080       .  S
C1752      H1764   1.082       .  S
C1753      C1754   1.371       .  A
C1753      H1765   1.082       .  S
C1754      H1766   1.078       .  S
C1755      C1842   1.466       .  S
C1757      C1844   1.465       .  S
N1769      C1774   1.351       .  A
N1769      C1773   1.356       .  A
N1769      H1801   1.038       .  S
N1770      C1777   1.356       .  A
N1770      C1778   1.354       .  A
N1771      C1776   1.356       .  A
N1771      C1775   1.354       .  A
N1771      H1802   1.039       .  S
N1772      C1779   1.353       .  A
N1772      C1780   1.354       .  A
C1773      C1781   1.386       .  A
C1773      C1789   1.415   1_565  A
C1774      C2058   1.414       .  A
C1774      C1782   1.387       .  A
C1775      C1783   1.389       .  A
C1775      C1792   1.420   1_554  A
C1776      C1784   1.384       .  A
C1777      C1785   1.383       .  A
C1778      C2060   1.420       .  A
C1778      C1786   1.387       .  A
C1779      C1787   1.386       .  A
C1779      C1790   1.414   1_554  A
C1780      C1788   1.384       .  A
C1780      C1791   1.413   1_565  A
C1781      C1782   1.376       .  A
C1781      H1793   1.079       .  S
C1782      H1794   1.083       .  S
C1783      C1784   1.376       .  A
C1783      H1795   1.082       .  S
C1784      H1796   1.079       .  S
C1785      C1786   1.372       .  A
C1785      H1797   1.077       .  S
C1786      H1798   1.082       .  S
C1787      C1788   1.372       .  A
C1787      H1799   1.082       .  S
C1788      H1800   1.078       .  S
C1789      C1838   1.467       .  S
C1790      C2042   1.415       .  A
C1791      C1839   1.462       .  S
C1792      C2046   1.418       .  A
N1803      C1808   1.355       .  A
N1803      C1807   1.352       .  A
N1803      H1835   1.039       .  S
N1804      C1811   1.351       .  A
N1804      C1812   1.354       .  A
N1805      C1810   1.355       .  A
N1805      C1809   1.358       .  A
N1805      H1836   1.039       .  S
N1806      C1813   1.355       .  A
N1806      C1814   1.353       .  A
C1807      C1815   1.387       .  A
C1807      C1823   1.414       .  A
C1808      C1824   1.414       .  A
C1808      C1816   1.386       .  A
C1809      C1817   1.385       .  A
C1810      C1825   1.421       .  A
C1810      C1818   1.388       .  A
C1811      C1823   1.413       .  A
C1811      C1819   1.386       .  A
C1812      C1826   1.413       .  A
C1812      C1820   1.384       .  A
C1813      C1821   1.383       .  A
C1814      C1822   1.387       .  A
C1814      C1825   1.417       .  A
C1815      C1816   1.375       .  A
C1815      H1827   1.083       .  S
C1816      H1828   1.079       .  S
C1817      C1818   1.377       .  A
C1817      H1829   1.079       .  S
C1818      H1830   1.082       .  S
C1819      C1820   1.371       .  A
C1819      H1831   1.083       .  S
C1820      H1832   1.077       .  S
C1821      C1822   1.372       .  A
C1821      H1833   1.078       .  S
C1822      H1834   1.082       .  S
C1824      C1840   1.462       .  S
C1826      C1837   1.466       .  S
C1841      C1842   1.217       .  T
C1843      C1844   1.216       .  T
C1845      C1846   1.337       .  D
C1845      H1847   1.087       .  S
C1846      H1848   1.087       .  S
C1849      C1850   1.343       .  D
C1849      H1851   1.087       .  S
C1850      H1852   1.087       .  S
C1853      C1854   1.347       .  D
C1853      H1855   1.087       .  S
C1854      H1856   1.087       .  S
C1857      C1858   1.344       .  D
C1857      H1859   1.087       .  S
C1858      H1860   1.087       .  S
C1861      C1862   1.345   1_554  D
C1861      H1863   1.087       .  S
C1862      H2132   1.087       .  S
H1864      C2130   1.087       .  S
C1865      C1866   1.343       .  D
C1865      H2135   1.087       .  S
C1866      H1868   1.087   1_554  S
H1867      C2133   1.086       .  S
C1869      C1870   1.341       .  D
C1869      H1871   1.087       .  S
C1873      C1874   1.338       .  D
C1874      H1876   1.087       .  S
Zn1877     O1882   2.029       .  S
Zn1877     O1886   2.050       .  S
Zn1877     O1893   2.041       .  S
Zn1878     O1883   2.010       .  S
Zn1878     O1885   1.989       .  S
Zn1878     O1889   2.011       .  S
Zn1879     O1884   2.012       .  S
Zn1879     O1887   2.018       .  S
Zn1879     O1890   2.008       .  S
Zn1880     O1888   2.015       .  S
Zn1880     O1891   2.028       .  S
Zn1880     O1892   2.013       .  S
Zn1880     O1881   1.963       .  S
O1884      C1896   1.271       .  A
O1885      C1894   1.270       .  A
O1888      C1897   1.275       .  A
O1891      C1898   1.273       .  A
O1892      C1899   1.274       .  A
C1894      C2137   1.469       .  S
C1895      C1990   1.479       .  S
C1896      C2129   1.476       .  S
C1897      C2142   1.469       .  S
C1898      C2133   1.480       .  S
C1899      C1992   1.486       .  S
Zn1900     O1905   1.999       .  S
Zn1900     O1909   2.004       .  S
Zn1900     O1916   1.985       .  S
Zn1900     O1904   1.947       .  S
Zn1901     O1906   1.997       .  S
Zn1901     O1908   2.019       .  S
Zn1901     O1912   2.024       .  S
Zn1902     O1907   2.027       .  S
Zn1902     O1910   1.997       .  S
Zn1902     O1913   2.003       .  S
Zn1902     O1904   1.961       .  S
Zn1903     O1911   2.016       .  S
Zn1903     O1914   2.016       .  S
Zn1903     O1915   2.021       .  S
O1905      C1917   1.271       .  A
O1907      C1919   1.274       .  A
O1909      C1919   1.270       .  A
O1910      C1918   1.270       .  A
O1912      C1921   1.275       .  A
O1913      C1920   1.272       .  A
O1914      C1921   1.271       .  A
O1916      C1922   1.269       .  A
C1919      C2121   1.474       .  S
C1921      C2125   1.479       .  S
Zn1923     O1928   2.000       .  S
Zn1923     O1932   1.995       .  S
Zn1923     O1939   2.001       .  S
Zn1924     O1929   2.038       .  S
Zn1924     O1931   2.040       .  S
Zn1924     O1935   2.012       .  S
Zn1924     O1927   1.962       .  S
Zn1925     O1930   2.018       .  S
Zn1925     O1933   2.020       .  S
Zn1925     O1936   2.027       .  S
Zn1926     O1934   2.008       .  S
Zn1926     O1937   1.982       .  S
Zn1926     O1938   2.012       .  S
Zn1926     O1927   1.956       .  S
O1929      C1941   1.276       .  A
O1930      C1942   1.275       .  A
O1931      C1940   1.276       .  A
O1932      C1942   1.269       .  A
O1934      C1943   1.273       .  A
O1935      C1944   1.276       .  A
O1937      C1944   1.268       .  A
O1938      C1945   1.272       .  A
C1940      C2134   1.476       .  S
C1941      C2060   1.493       .  S
C1942      C2114   1.471       .  S
C1943      C2130   1.478       .  S
C1944      C2117   1.465       .  S
C1945      C2058   1.473       .  S
Zn1946     O1951   1.987       .  S
Zn1946     O1955   2.010       .  S
Zn1946     O1962   2.017       .  S
Zn1946     O1950   1.955       .  S
Zn1947     O1952   2.043       .  S
Zn1947     O1954   2.028       .  S
Zn1947     O1958   2.053       .  S
Zn1947     O1950   1.971       .  S
Zn1948     O1953   2.022       .  S
Zn1948     O1956   2.015       .  S
Zn1948     O1959   2.016       .  S
Zn1948     O1950   1.957       .  S
Zn1949     O1957   1.971       .  S
Zn1949     O1960   1.985       .  S
Zn1949     O1961   1.990       .  S
Zn1949     O1950   1.948       .  S
O1951      C1963   1.270       .  A
O1952      C1964   1.277       .  A
O1953      C1965   1.272       .  A
O1954      C1963   1.277       .  A
O1955      C1965   1.273       .  A
O1956      C1964   1.274       .  A
O1957      C1966   1.266       .  A
O1958      C1967   1.278       .  A
O1959      C1966   1.275       .  A
O1960      C1967   1.268       .  A
O1961      C1968   1.268       .  A
O1962      C1968   1.272       .  A
C1963      C2113   1.469       .  S
C1964      C2093   1.491       .  S
C1965      C2122   1.478       .  S
C1966      C2118   1.463       .  S
C1967      C2126   1.476       .  S
C1968      C2091   1.475       .  S
N1969      C1974   1.353       .  A
N1969      C1973   1.354       .  A
N1969      H2001   1.036       .  S
N1970      C1977   1.356       .  A
N1970      C1978   1.353       .  A
N1971      C1976   1.357       .  A
N1971      C1975   1.354       .  A
N1971      H2002   1.040       .  S
N1972      C1979   1.353       .  A
N1972      C1980   1.355       .  A
C1973      C1981   1.386       .  A
C1973      C1989   1.414   1_565  A
C1974      C1990   1.412       .  A
C1974      C1982   1.385       .  A
C1975      C1983   1.386       .  A
C1976      C1984   1.383       .  A
C1977      C1985   1.383       .  A
C1978      C1992   1.420       .  A
C1978      C1986   1.389       .  A
C1979      C1987   1.388       .  A
C1980      C1988   1.384       .  A
C1980      C1991   1.413       .  A
C1981      C1982   1.373       .  A
C1981      H1993   1.078       .  S
C1982      H1994   1.082       .  S
C1983      C1984   1.372       .  A
C1983      H1995   1.082       .  S
C1984      H1996   1.074       .  S
C1985      C1986   1.374       .  A
C1985      H1997   1.079       .  S
C1986      H1998   1.082       .  S
C1987      C1988   1.372       .  A
C1987      H1999   1.082       .  S
C1988      H2000   1.080       .  S
C1989      C2111   1.465       .  S
C1991      C2109   1.464       .  S
N2003      C2008   1.354       .  A
N2003      C2007   1.357       .  A
N2003      H2035   1.039       .  S
N2004      C2011   1.354       .  A
N2004      C2012   1.352       .  A
N2005      C2010   1.354       .  A
N2005      C2009   1.352       .  A
N2005      H2036   1.039       .  S
N2006      C2013   1.355       .  A
N2006      C2014   1.357       .  A
C2007      C2015   1.385       .  A
C2007      C2023   1.417       .  A
C2008      C2024   1.420       .  A
C2008      C2016   1.389       .  A
C2009      C2017   1.388       .  A
C2009      C2026   1.413       .  A
C2010      C2018   1.385       .  A
C2011      C2019   1.384       .  A
C2012      C2026   1.412       .  A
C2012      C2020   1.385       .  A
C2013      C2021   1.387       .  A
C2013      C2024   1.422       .  A
C2014      C2022   1.383       .  A
C2014      C2025   1.418       .  A
C2015      C2016   1.375       .  A
C2015      H2027   1.081       .  S
C2016      H2028   1.082       .  S
C2017      C2018   1.373       .  A
C2017      H2029   1.083       .  S
C2018      H2030   1.079       .  S
C2019      C2020   1.371       .  A
C2019      H2031   1.074       .  S
C2020      H2032   1.082       .  S
C2021      C2022   1.374       .  A
C2021      H2033   1.082       .  S
C2022      H2034   1.077       .  S
C2023      C2110   1.464       .  S
C2025      C2112   1.465   1_565  S
N2037      C2042   1.353       .  A
N2037      C2041   1.355       .  A
N2037      H2069   1.038       .  S
N2038      C2045   1.356       .  A
N2038      C2046   1.353       .  A
N2039      C2044   1.358       .  A
N2039      C2043   1.356       .  A
N2039      H2070   1.039       .  S
N2040      C2047   1.351       .  A
N2040      C2048   1.354       .  A
C2041      C2049   1.386       .  A
C2041      C2057   1.414   1_565  A
C2042      C2050   1.387       .  A
C2043      C2051   1.389       .  A
C2043      C2060   1.423       .  A
C2044      C2052   1.385       .  A
C2045      C2053   1.383       .  A
C2046      C2054   1.387       .  A
C2047      C2055   1.388       .  A
C2047      C2058   1.413       .  A
C2048      C2056   1.384       .  A
C2048      C2059   1.411   1_565  A
C2049      C2050   1.375       .  A
C2049      H2061   1.080       .  S
C2050      H2062   1.083       .  S
C2051      C2052   1.377       .  A
C2051      H2063   1.082       .  S
C2052      H2064   1.079       .  S
C2053      C2054   1.374       .  A
C2053      H2065   1.078       .  S
C2054      H2066   1.082       .  S
C2055      C2056   1.369       .  A
C2055      H2067   1.082       .  S
C2056      H2068   1.078       .  S
C2057      C2106   1.467       .  S
C2059      C2107   1.463   1_545  S
N2071      C2076   1.355       .  A
N2071      C2075   1.352       .  A
N2071      H2103   1.039       .  S
N2072      C2079   1.351       .  A
N2072      C2080   1.352       .  A
N2073      C2078   1.356       .  A
N2073      C2077   1.359       .  A
N2073      H2104   1.039       .  S
N2074      C2081   1.356       .  A
N2074      C2082   1.353       .  A
C2075      C2083   1.386       .  A
C2075      C2091   1.412       .  A
C2076      C2092   1.413       .  A
C2076      C2084   1.386       .  A
C2077      C2085   1.385       .  A
C2078      C2093   1.423       .  A
C2078      C2086   1.389       .  A
C2079      C2091   1.411       .  A
C2079      C2087   1.386       .  A
C2080      C2094   1.410       .  A
C2080      C2088   1.384       .  A
C2081      C2089   1.384       .  A
C2082      C2090   1.388       .  A
C2082      C2093   1.419       .  A
C2083      C2084   1.375       .  A
C2083      H2095   1.082       .  S
C2084      H2096   1.079       .  S
C2085      C2086   1.378       .  A
C2085      H2097   1.080       .  S
C2086      H2098   1.082       .  S
C2087      C2088   1.370       .  A
C2087      H2099   1.082       .  S
C2088      H2100   1.077       .  S
C2089      C2090   1.374       .  A
C2089      H2101   1.079       .  S
C2090      H2102   1.082       .  S
C2092      C2108   1.465       .  S
C2094      C2105   1.463       .  S
C2109      C2110   1.215       .  T
C2111      C2112   1.216       .  T
C2113      C2114   1.339       .  D
C2113      H2115   1.087       .  S
C2114      H2116   1.087       .  S
C2117      C2118   1.336       .  D
C2117      H2119   1.087       .  S
C2118      H2120   1.087       .  S
C2121      C2122   1.344       .  D
C2121      H2123   1.087       .  S
C2122      H2124   1.087       .  S
C2125      C2126   1.341       .  D
C2125      H2127   1.086       .  S
C2126      H2128   1.087       .  S
C2129      C2130   1.345       .  D
C2129      H2131   1.087       .  S
C2133      C2134   1.344       .  D
C2134      H2136   1.087       .  S
C2137      C2138   1.339       .  D
C2137      H2139   1.087       .  S
C2141      C2142   1.340       .  D
C2142      H2144   1.087       .  S
