geometry optimzed in LAMMPS
_audit_creation_date              2020-11-30 
_audit_creation_method            'lammps2cif' 
_symmetry_space_group_name_H-M    'P1' 
_symmetry_Int_Tables_number       1 
_symmetry_cell_setting            triclinic 
loop_ 
_symmetry_equiv_pos_as_xyz 
  x,y,z 
_cell_length_a                    74.7500051 
_cell_length_b                    75.54379934597887 
_cell_length_c                    27.095041661742144 
_cell_angle_alpha                 90.4921644410735 
_cell_angle_beta                  89.69606917582388 
_cell_angle_gamma                 90.57798159593162 
loop_ 
_atom_site_label 
_atom_site_type_symbol 
_atom_site_fract_x 
_atom_site_fract_y 
_atom_site_fract_z 
_atom_site_charge 
C1          C  0.72704174  0.82331752  0.32281699     0.86400
C2          C  0.72327995  0.82687504  0.37854470    -0.53800
C3          C  0.73835973  0.82997027  0.40628943     0.09300
C4          C  0.75577215  0.82925298  0.37540398     0.20300
C5          C  0.73768630  0.83994967  0.30763505    -0.54600
C6          C  0.75301646  0.84268094  0.33376901     0.09400
C7          C  0.74045984  0.80815895  0.32246043    -0.54100
C8          C  0.75530806  0.81109260  0.34994050     0.10000
H9          H  0.71000525  0.82748532  0.39471124     0.14500
H10         H  0.76820435  0.83167188  0.39651751     0.00200
H11         H  0.73337524  0.84921101  0.28003522     0.14800
H12         H  0.73841985  0.79598682  0.30141173     0.14600
C13         C  0.64968016  0.76546095  0.18312508     0.86400
C14         C  0.66349896  0.75087899  0.19258176    -0.53800
C15         C  0.68067987  0.75490883  0.17967574     0.09300
C16         C  0.68277018  0.77366886  0.15880060     0.20300
C17         C  0.65722189  0.78188697  0.21033919    -0.54600
C18         C  0.67480608  0.78562966  0.20015757     0.09400
C19         C  0.65226654  0.77035649  0.12861736    -0.54100
C20         C  0.66942929  0.77440245  0.11508495     0.10000
H21         H  0.65977264  0.73798371  0.20714002     0.14500
H22         H  0.69662329  0.77711916  0.14774332     0.00200
H23         H  0.64979118  0.79046164  0.23433332     0.14800
H24         H  0.64137805  0.77006393  0.10220404     0.14600
C25         C  0.84370307  0.75066018  0.32553687     0.86400
C26         C  0.83449682  0.73464499  0.30093588    -0.53800
C27         C  0.81762120  0.73099575  0.31828560     0.09300
C28         C  0.81205161  0.74302568  0.36222352     0.20300
C29         C  0.83001001  0.76578499  0.32292126    -0.54600
C30         C  0.81352775  0.76167351  0.34143483     0.09400
C31         C  0.84378993  0.74595158  0.38089763    -0.54100
C32         C  0.82729896  0.74223442  0.40024134     0.10000
H33         H  0.84039408  0.72738838  0.27036301     0.14500
H34         H  0.79857220  0.74024640  0.37783380     0.00200
H35         H  0.83323807  0.77880952  0.30849208     0.14800
H36         H  0.85524309  0.74691899  0.40499369     0.40200
C37         C  0.74266079  0.66847121  0.19089318     0.86400
C38         C  0.75962829  0.67565723  0.21538281    -0.53800
C39         C  0.76474085  0.69220427  0.20077989     0.09300
C40         C  0.75294396  0.69962852  0.15894045     0.20300
C41         C  0.72863571  0.68298000  0.19656137    -0.54600
C42         C  0.73364064  0.69909831  0.17921362     0.09400
C43         C  0.74753128  0.66878248  0.13527531    -0.54100
C44         C  0.75297865  0.68506979  0.11817699     0.10000
H45         H  0.76648590  0.66853603  0.24424455     0.14500
H46         H  0.75727844  0.71295005  0.14690358     0.00200
H47         H  0.71538337  0.68048525  0.21187040     0.14800
H48         H  0.74683198  0.65746052  0.11065720     0.14600
C49         C  0.84783474  0.75359053  0.67883286     0.86400
C50         C  0.83250672  0.76708787  0.68151013    -0.53800
C51         C  0.81622985  0.76075876  0.66702704     0.09300
C52         C  0.81633019  0.74116508  0.65264848     0.20300
C53         C  0.84103144  0.73791911  0.71019098    -0.54600
C54         C  0.82423821  0.73194373  0.69836045     0.09400
C55         C  0.84723130  0.74585392  0.62640658    -0.54100
C56         C  0.83072190  0.73988965  0.61182679     0.10000
H57         H  0.83449047  0.78080068  0.69282736     0.14500
H58         H  0.80304484  0.73611426  0.64069130     0.00200
H59         H  0.84863164  0.73151358  0.73842999     0.14800
H60         H  0.85852361  0.74622459  0.60120095     0.14600
C61         C  0.77405993  0.69178852  0.82193301     0.86400
C62         C  0.77822316  0.69008739  0.87794967    -0.53800
C63         C  0.76357412  0.68639832  0.90657092     0.09300
C64         C  0.74620100  0.68430990  0.87737205     0.20300
C65         C  0.76515195  0.67386148  0.80971030    -0.54600
C66         C  0.75025135  0.67020418  0.83748587     0.09400
C67         C  0.75887074  0.70524633  0.81940447    -0.54100
C68         C  0.74471390  0.70195195  0.84990296     0.10000
H69         H  0.79134632  0.69192644  0.89415556     0.14500
H70         H  0.73450322  0.68102476  0.90108787     0.00200
H71         H  0.76999184  0.66458808  0.78231548     0.14800
H72         H  0.75966631  0.71691533  0.79629703     0.14600
C73         C  0.65634565  0.76133889  0.83194800     0.86400
C74         C  0.66614864  0.77499400  0.79988187    -0.53800
C75         C  0.68251728  0.78001476  0.81697478     0.09300
C76         C  0.68737598  0.77165363  0.86705915     0.20300
C77         C  0.67003566  0.74641232  0.83846963    -0.54600
C78         C  0.68612351  0.75148584  0.85792707     0.09400
C79         C  0.65543693  0.76968650  0.88419944    -0.54100
C80         C  0.67158814  0.77539991  0.90250458     0.10000
H81         H  0.66115076  0.77926981  0.76438426     0.14500
H82         H  0.70032810  0.77648549  0.88195502     0.00200
H83         H  0.66726124  0.73291756  0.82663863     0.14800
H84         H  0.64408021  0.76832301  0.90866611     0.14600
C85         C  0.75649647  0.84435301  0.69812847     0.86400
C86         C  0.74068827  0.83586131  0.72511099    -0.53800
C87         C  0.73336879  0.82137747  0.70193581     0.09300
C88         C  0.74325610  0.81627878  0.65334746     0.20300
C89         C  0.76989339  0.82919830  0.69032368    -0.54600
C90         C  0.76298966  0.81453838  0.66777177     0.09400
C91         C  0.74993994  0.84774966  0.64536922    -0.54100
C92         C  0.74309934  0.83315771  0.62119705     0.10000
H93         H  0.73608925  0.84065072  0.76083573     0.14500
H94         H  0.73806494  0.80418617  0.63462255     0.00200
H95         H  0.78388479  0.82997128  0.70083700     0.14800
H96         H  0.75195618  0.86028765  0.62704524     0.14600
O97         O  0.90359627  0.79779350  0.20901967    -0.57900
C98         C  0.92931769  0.82088295  0.11603830     0.74700
O99         O  0.90933161  0.83973562  0.28229029    -0.59100
C100        C  0.90382855  0.79150087  0.25211458     0.74700
C101        C  0.96303198  0.81939525  0.25410507     0.77100
Cd102      Cd  0.92641615  0.82106698  0.22254736     1.37500
O103        O  0.91518413  0.82529702  0.13869203    -0.57900
O104        O  0.95414639  0.80563469  0.24285475    -0.56700
C105        C  0.90915790  0.85341845  0.25572619     0.77000
O106        O  0.95443102  0.83374823  0.25406058    -0.59100
O107        O  0.94224365  0.81626004  0.14274996    -0.57500
O108        O  0.91500288  0.79857515  0.28128591    -0.57500
O109        O  0.91783913  0.85233540  0.21565858    -0.56700
O110        O  0.08962055  0.81408080  0.14772972    -0.57900
C111        C  0.09670498  0.79507701  0.26913458     0.74700
O112        O  0.09932263  0.84395899  0.26928016    -0.59100
C113        C  0.07670501  0.81921354  0.12178579     0.74700
C114        C  0.04027887  0.82253660  0.25916358     0.77100
Cd115      Cd  0.07726978  0.82398199  0.22741464     1.37500
O116        O  0.09354316  0.79646924  0.22349489    -0.57900
O117        O  0.04886625  0.80888982  0.24654175    -0.56700
C118        C  0.09847961  0.85625357  0.23796158     0.77000
O119        O  0.04936294  0.83672780  0.26150098    -0.59100
O120        O  0.09015672  0.80704345  0.29668163    -0.57500
O121        O  0.06387908  0.82623655  0.14519140    -0.57500
O122        O  0.08704117  0.85395629  0.20442498    -0.56700
O123        O  0.20310389  0.90761121  0.19853239    -0.57900
C124        C  0.18843484  0.93707481  0.10237474     0.74700
O125        O  0.16292708  0.91686326  0.26381151    -0.59100
C126        C  0.20987931  0.90803265  0.24118176     0.74700
C127        C  0.18292266  0.96962616  0.24369298     0.77100
Cd128      Cd  0.18365471  0.93316504  0.20781289     1.37500
O129        O  0.20166006  0.93605906  0.13111805    -0.57900
O130        O  0.19732304  0.96170215  0.23376082    -0.56700
C131        C  0.15261765  0.91152527  0.22975710     0.77000
O132        O  0.16883324  0.96030859  0.23984512    -0.59100
O133        O  0.17317973  0.93709891  0.12288919    -0.57500
O134        O  0.20515488  0.92089757  0.26838705    -0.57500
O135        O  0.15608630  0.91720131  0.18696455    -0.56700
O136        O  0.19688897  0.08730599  0.13173041    -0.57900
C137        C  0.21006611  0.10422609  0.25465377     0.74700
O138        O  0.15546958  0.09817604  0.18154566    -0.59100
C139        C  0.18550810  0.07860501  0.10661493     0.74700
C140        C  0.18083136  0.04602066  0.24658871     0.77100
Cd141      Cd  0.18168510  0.08262449  0.21261671     1.37500
O142        O  0.20895851  0.10084606  0.20890736    -0.57900
O143        O  0.19527109  0.05393438  0.23549800    -0.56700
C144        C  0.15082561  0.10598738  0.22075334     0.77000
O145        O  0.16698508  0.05548096  0.24591827    -0.59100
O146        O  0.19843591  0.09674968  0.28173328    -0.57500
O147        O  0.17302514  0.07139264  0.13108216    -0.57500
O148        O  0.16011956  0.10247551  0.25829712    -0.56700
O149        O  0.92071656  0.20120898  0.14124082    -0.57900
C150        C  0.89597299  0.21042134  0.25713920     0.74700
O151        O  0.90911242  0.16401110  0.27908925    -0.59100
C152        C  0.92457654  0.18787934  0.11485213     0.74700
C153        C  0.95987433  0.19035985  0.24817716     0.77100
Cd154      Cd  0.92253919  0.18587408  0.22108237     1.37500
O155        O  0.91119836  0.20966279  0.27729497    -0.57900
O156        O  0.95132091  0.20221500  0.22608621    -0.56700
C157        C  0.90562282  0.15253325  0.24604760     0.77000
O158        O  0.95080566  0.17691680  0.26107615    -0.59100
O159        O  0.89339904  0.20019120  0.22074520    -0.57500
O160        O  0.92763646  0.17378245  0.13807844    -0.57500
O161        O  0.91115363  0.15608183  0.20304684    -0.56700
O162        O  0.08093740  0.20625516  0.12697886    -0.57900
C163        C  0.09577961  0.21973315  0.25220853     0.74700
O164        O  0.04663491  0.17753521  0.23581875    -0.59100
C165        C  0.07158004  0.19570615  0.10110844     0.74700
C166        C  0.09750065  0.16150273  0.21936552     0.77100
Cd167      Cd  0.07447263  0.19200572  0.20684131     1.37500
O168        O  0.09106976  0.22036073  0.20754130    -0.57900
O169        O  0.09011844  0.16893215  0.25607039    -0.56700
C170        C  0.03726573  0.19132026  0.23900833     0.77000
O171        O  0.09373892  0.16780291  0.17768516    -0.59100
O172        O  0.08969992  0.20672682  0.27648965    -0.57500
O173        O  0.06326317  0.18375407  0.12469530    -0.57500
O174        O  0.04549670  0.20568164  0.23030050    -0.56700
O175        O  0.79985309  0.91636123  0.29627369    -0.57900
C176        C  0.82097999  0.93037361  0.13861732     0.74700
O177        O  0.83619921  0.95450324  0.28515852    -0.59100
C178        C  0.80059009  0.90051919  0.28076419     0.74700
C179        C  0.85892082  0.90987655  0.26475023     0.77100
Cd180      Cd  0.82538360  0.92696970  0.24448006     1.37500
O181        O  0.80963777  0.92219124  0.16485915    -0.57900
O182        O  0.85476964  0.91529490  0.22237728    -0.56700
C183        C  0.82186480  0.96306013  0.28034084     0.77000
O184        O  0.84810601  0.91358227  0.29943305    -0.59100
O185        O  0.83393405  0.93731054  0.16185532    -0.57500
O186        O  0.81270220  0.89723369  0.24940981    -0.57500
O187        O  0.80877449  0.95432837  0.26297003    -0.56700
O188        O  0.80197267  0.10040231  0.22941924    -0.57900
C189        C  0.82038212  0.07176354  0.12932562     0.74700
O190        O  0.84135396  0.09575687  0.28227716    -0.59100
C191        C  0.79542642  0.09974325  0.27256412     0.74700
C192        C  0.81813393  0.03904803  0.27288226     0.77100
Cd193      Cd  0.82167972  0.07487774  0.23576890     1.37500
O194        O  0.80762090  0.07839748  0.15402130    -0.57900
O195        O  0.80617258  0.04608268  0.24698140    -0.56700
C196        C  0.85442908  0.09502745  0.25251705     0.77000
O197        O  0.83121731  0.04901358  0.28425972    -0.59100
O198        O  0.83318711  0.06589817  0.15439026    -0.57500
O199        O  0.80028130  0.08672629  0.29824919    -0.57500
O200        O  0.85284000  0.08381891  0.21800942    -0.56700
O201        O  0.80817155  0.90031216  0.82373538    -0.57900
C202        C  0.82182858  0.93178842  0.92400219     0.74700
O203        O  0.84508785  0.91339995  0.75824284    -0.59100
C204        C  0.79858863  0.90176244  0.78580436     0.74700
C205        C  0.82091660  0.96470578  0.78445309     0.77100
Cd206      Cd  0.82421624  0.92837271  0.81740829     1.37500
O207        O  0.80810042  0.92854197  0.89818426    -0.57900
O208        O  0.80795717  0.95588301  0.80204470    -0.56700
C209        C  0.85705145  0.91064834  0.79018740     0.77000
O210        O  0.83534622  0.95631709  0.77900609    -0.59100
O211        O  0.83630376  0.93369713  0.90028919    -0.57500
O212        O  0.80042977  0.91609214  0.76223042    -0.57500
O213        O  0.85404682  0.91688817  0.83276874    -0.56700
O214        O  0.80279578  0.10327156  0.81679612    -0.57900
C215        C  0.82055379  0.07521909  0.91469111     0.74700
O216        O  0.83331978  0.04933492  0.77630128    -0.59100
C217        C  0.79616839  0.10268334  0.77397053     0.74700
C218        C  0.85459773  0.09747936  0.78360059     0.77100
Cd219      Cd  0.82249355  0.07804985  0.80865006     1.37500
O220        O  0.80805513  0.08168544  0.88951666    -0.57900
O221        O  0.84422003  0.09188131  0.75001007    -0.56700
C222        C  0.81860241  0.04111377  0.78145254     0.77000
O223        O  0.85041589  0.09335058  0.82720561    -0.59100
O224        O  0.83397072  0.06985186  0.89030498    -0.57500
O225        O  0.80123654  0.08992575  0.74684284    -0.57500
O226        O  0.80549362  0.05042189  0.79506062    -0.56700
O227        O  0.21552587  0.91003552  0.77315905    -0.57900
C228        C  0.19047640  0.93423817  0.88791600     0.74700
O229        O  0.17450067  0.95591168  0.74866990    -0.59100
C230        C  0.21261379  0.90599277  0.72845774     0.74700
C231        C  0.15774485  0.90610639  0.78080852     0.77100
Cd232      Cd  0.18873368  0.92903374  0.78240798     1.37500
O233        O  0.20431057  0.92956506  0.86390911    -0.57900
O234        O  0.16954127  0.90567505  0.81390492    -0.56700
C235        C  0.18815505  0.96585854  0.75212813     0.77000
O236        O  0.16022991  0.91723098  0.74660505    -0.59100
O237        O  0.17660396  0.93659519  0.86252851    -0.57500
O238        O  0.19998074  0.91406285  0.70784677    -0.57500
O239        O  0.20232773  0.95833912  0.76588943    -0.56700
O240        O  0.21534632  0.09695330  0.78734763    -0.57900
C241        C  0.18968797  0.07687911  0.89190460     0.74700
O242        O  0.16115421  0.09278216  0.74169729    -0.59100
C243        C  0.21429793  0.10286228  0.74399853     0.74700
C244        C  0.18834250  0.04267041  0.75368792     0.77100
Cd245      Cd  0.18742756  0.07968989  0.78602628     1.37500
O246        O  0.20313467  0.08143057  0.86624334    -0.57900
O247        O  0.20228125  0.05217812  0.75718440    -0.56700
C248        C  0.15702073  0.10305167  0.77715817     0.77000
O249        O  0.17379523  0.05068365  0.76142592    -0.59100
O250        O  0.17573705  0.07281023  0.86789545    -0.57500
O251        O  0.20127658  0.09700375  0.71865702    -0.57500
O252        O  0.16658529  0.10182908  0.81522144    -0.56700
O253        O  0.89892774  0.20392916  0.79699607    -0.57900
C254        C  0.92739581  0.18711963  0.90003983     0.74700
O255        O  0.91533787  0.15602512  0.81114830    -0.59100
C256        C  0.90163539  0.21239088  0.75761527     0.74700
C257        C  0.96339864  0.18868788  0.76385255     0.77100
Cd258      Cd  0.92601115  0.18599170  0.79353282     1.37500
O259        O  0.92114392  0.19986657  0.87563973    -0.57900
O260        O  0.95597915  0.20033635  0.79058438    -0.56700
C261        C  0.90696093  0.15324692  0.77144620     0.77000
O262        O  0.95315323  0.17658476  0.74755830    -0.59100
O263        O  0.93344019  0.17439086  0.87470185    -0.57500
O264        O  0.91620933  0.20928514  0.73517983    -0.57500
O265        O  0.90840778  0.16526539  0.73938787    -0.56700
O266        O  0.07990844  0.20527923  0.86100589    -0.57900
C267        C  0.10049553  0.21353471  0.72795050     0.74700
O268        O  0.09132156  0.16006076  0.74524604    -0.59100
C269        C  0.07412918  0.19254399  0.88700083     0.74700
C270        C  0.04115852  0.18948980  0.75702167     0.77100
Cd271      Cd  0.07896661  0.18832902  0.78194483     1.37500
O272        O  0.09693313  0.21536775  0.77340516    -0.57900
O273        O  0.05065730  0.20317588  0.76407526    -0.56700
C274        C  0.10309168  0.15835090  0.77846606     0.77000
O275        O  0.04957019  0.17499000  0.75686464    -0.59100
O276        O  0.09314460  0.20044215  0.70639010    -0.57500
O277        O  0.07089606  0.17826465  0.86396342    -0.57500
O278        O  0.10328248  0.17025176  0.81142146    -0.56700
O279        O  0.91734390  0.81674006  0.87507708    -0.57900
C280        C  0.90754374  0.79751892  0.75187895     0.74700
O281        O  0.91487219  0.84697534  0.74237493    -0.59100
C282        C  0.92989748  0.82280391  0.90160174     0.74700
C283        C  0.96738196  0.82284281  0.76362077     0.77100
Cd284      Cd  0.93025334  0.82508757  0.79481533     1.37500
O285        O  0.91407885  0.79630920  0.79463683    -0.57900
O286        O  0.95853846  0.80960888  0.77893411    -0.56700
C287        C  0.91099754  0.85741065  0.77745410     0.77000
O288        O  0.95864566  0.83698433  0.75966937    -0.59100
O289        O  0.91246197  0.81103366  0.72785944    -0.57500
O290        O  0.94288751  0.82981305  0.87850618    -0.57500
O291        O  0.91708817  0.85346299  0.81932165    -0.56700
O292        O  0.09688958  0.79189335  0.80115058    -0.57900
C293        C  0.07725050  0.81798354  0.90727745     0.74700
O294        O  0.09568698  0.84391730  0.75186857    -0.59100
C295        C  0.10184053  0.79260121  0.75653033     0.74700
C296        C  0.04433359  0.81920101  0.76783568     0.77100
Cd297      Cd  0.08092411  0.82027686  0.80150023     1.37500
O298        O  0.08830653  0.80848195  0.88365491    -0.57900
O299        O  0.05290190  0.80537771  0.77787508    -0.56700
C300        C  0.10309327  0.85157070  0.78816889     0.77000
O301        O  0.05315697  0.83355202  0.77055622    -0.59100
O302        O  0.06770278  0.82798204  0.88136547    -0.57500
O303        O  0.09635595  0.80575598  0.73249602    -0.57500
O304        O  0.09972181  0.84497061  0.82990508    -0.56700
C305        C  0.25232649  0.16459693  0.32570381     0.86400
C306        C  0.23698728  0.17788897  0.32176554    -0.53800
C307        C  0.24080424  0.19447254  0.33896562     0.09300
C308        C  0.26014246  0.19670459  0.35715734     0.20300
C309        C  0.26823537  0.17335468  0.29868285    -0.54600
C310        C  0.27176554  0.19044884  0.31293999     0.09400
C311        C  0.25824726  0.16569998  0.38044737    -0.54100
C312        C  0.26221266  0.18241645  0.39742584     0.10000
H313        H  0.22397205  0.17435520  0.30670280     0.14500
H314        H  0.26339269  0.21034511  0.36983563     0.00200
H315        H  0.27655223  0.16653136  0.27212483     0.14800
H316        H  0.25951189  0.15436450  0.40433490     0.14600
C317        C  0.34835982  0.25778557  0.20121297     0.86400
C318        C  0.33461363  0.27281614  0.20188161    -0.53800
C319        C  0.31793120  0.26816754  0.18613539     0.09300
C320        C  0.31642339  0.24874451  0.16957003     0.20300
C321        C  0.33953992  0.24252138  0.23008739    -0.54600
C322        C  0.32250313  0.23821613  0.21539663     0.09400
C323        C  0.34794717  0.25090656  0.14731462    -0.54100
C324        C  0.33131799  0.24645203  0.13044082     0.10000
H325        H  0.33793239  0.28623178  0.21368610     0.14500
H326        H  0.30304766  0.24521367  0.15488898     0.00200
H327        H  0.34647037  0.23542232  0.25854112     0.14800
H328        H  0.35932373  0.25006663  0.12267086     0.14600
C329        C  0.15701907  0.26017661  0.32323436     0.86400
C330        C  0.16496744  0.27510536  0.29081741    -0.53800
C331        C  0.18220875  0.27972768  0.30242756     0.09300
C332        C  0.18954984  0.26973236  0.34723917     0.20300
C333        C  0.17092457  0.24540649  0.31905234    -0.54600
C334        C  0.18784905  0.25014579  0.33225155     0.09400
C335        C  0.15876657  0.26769454  0.37565983    -0.54100
C336        C  0.17574135  0.27257126  0.38944817     0.10000
H337        H  0.15789654  0.28179236  0.26203553     0.14500
H338        H  0.20324162  0.27378233  0.35633429     0.00200
H339        H  0.16752749  0.23202542  0.30707707     0.14800
H340        H  0.14731232  0.26891358  0.40004900     0.14600
C341        C  0.24956677  0.35077615  0.17135682     0.86400
C342        C  0.23492046  0.34238197  0.20425804    -0.53800
C343        C  0.23203009  0.32471272  0.19523137     0.09300
C344        C  0.24343986  0.31720584  0.15243194     0.20300
C345        C  0.26571657  0.33863954  0.17843974    -0.54600
C346        C  0.26285800  0.32132213  0.16710031     0.09400
C347        C  0.24265248  0.34696521  0.11888418    -0.54100
C348        C  0.23966223  0.32942835  0.10875314     0.10000
H349        H  0.22673749  0.34960183  0.23032535     0.14500
H350        H  0.24096181  0.30297898  0.14399371     0.00200
H351        H  0.27829539  0.34347548  0.19336384     0.14800
H352        H  0.24097222  0.35705454  0.09118593     0.14600
C353        C  0.25504159  0.16494330  0.67760076     0.86400
C354        C  0.26998133  0.17273337  0.71095044    -0.53800
C355        C  0.27608845  0.18914011  0.69731542     0.09300
C356        C  0.26677556  0.19618959  0.65051112     0.20300
C357        C  0.24079697  0.17946277  0.67792823    -0.54600
C358        C  0.24676732  0.19591611  0.66523633     0.09400
C359        C  0.26333542  0.16521897  0.62584466    -0.54100
C360        C  0.26891008  0.18147620  0.61020776     0.10000
H361        H  0.27498162  0.16668833  0.74406345     0.14500
H362        H  0.27200522  0.20920805  0.63828810     0.00200
H363        H  0.22691599  0.17676739  0.68750800     0.14800
H364        H  0.26277951  0.15377489  0.60132937     0.14600
C365        C  0.34898218  0.24643465  0.84939815     0.86400
C366        C  0.34088508  0.23139009  0.81752615    -0.53800
C367        C  0.32458779  0.22532420  0.83371529     0.09300
C368        C  0.31767715  0.23507278  0.88043762     0.20300
C369        C  0.33403389  0.26034444  0.84937642    -0.54600
C370        C  0.31760096  0.25457099  0.86485664     0.09400
C371        C  0.34900183  0.23924534  0.90197484    -0.54100
C372        C  0.33265974  0.23398415  0.91962598     0.10000
H373        H  0.34551062  0.22782567  0.78108649     0.14500
H374        H  0.30465543  0.22964212  0.89288902     0.00200
H375        H  0.33621250  0.27370117  0.83582170     0.14800
H376        H  0.36048458  0.24096669  0.92607310     0.14600
C377        C  0.16032884  0.25635446  0.65976595     0.86400
C378        C  0.16042942  0.26624099  0.61100355    -0.53800
C379        C  0.17661942  0.27326465  0.59727969     0.09300
C380        C  0.19173837  0.26924057  0.63496942     0.20300
C381        C  0.17511382  0.24242767  0.65375904    -0.54600
C382        C  0.19173894  0.24886662  0.64194776     0.09400
C383        C  0.16847941  0.26926406  0.69823635    -0.54100
C384        C  0.18466622  0.27630943  0.68487695     0.10000
H385        H  0.14869712  0.26649270  0.58761083     0.14500
H386        H  0.20497230  0.27498926  0.62548537     0.00200
H387        H  0.17288271  0.22856855  0.66252092     0.14800
H388        H  0.16321318  0.27118930  0.73517833     0.14600
C389        C  0.25510434  0.33854310  0.82902520     0.86400
C390        C  0.26933229  0.32399171  0.82590040    -0.53800
C391        C  0.26364193  0.30765267  0.84091927     0.09300
C392        C  0.24423232  0.30742244  0.85987797     0.20300
C393        C  0.23914936  0.33054405  0.79955951    -0.54600
C394        C  0.23359307  0.31415467  0.81524800     0.09400
C395        C  0.24840423  0.33846630  0.88250646    -0.54100
C396        C  0.24352900  0.32224938  0.89957368     0.10000
H397        H  0.28297487  0.32660452  0.81381054     0.14500
H398        H  0.23943953  0.29445339  0.87380871     0.00200
H399        H  0.23309062  0.33642146  0.76757664     0.14800
H400        H  0.24893157  0.35009264  0.90638204     0.14600
C401        C  0.15335814  0.74807548  0.32966850     0.86400
C402        C  0.16730709  0.76276659  0.32213434    -0.53800
C403        C  0.18416234  0.75870605  0.33611829     0.09300
C404        C  0.18604844  0.73967784  0.35471457     0.20300
C405        C  0.16081040  0.73181310  0.30194765    -0.54600
C406        C  0.17822570  0.72794201  0.31271408     0.09400
C407        C  0.15538982  0.74265844  0.38412825    -0.54100
C408        C  0.17242169  0.73833476  0.39796896     0.10000
H409        H  0.16394639  0.77576004  0.30814197     0.14500
H410        H  0.19994380  0.73625523  0.36419047     0.00200
H411        H  0.15287193  0.72334588  0.27831162     0.14800
H412        H  0.14426954  0.74208015  0.40993591     0.14600
C413        C  0.24541373  0.65480106  0.18762519     0.86400
C414        C  0.25973946  0.66952544  0.18953871    -0.53800
C415        C  0.25415072  0.68564547  0.17434241     0.09300
C416        C  0.23441856  0.68597979  0.16005208     0.20300
C417        C  0.22991651  0.66227489  0.21947067    -0.54600
C418        C  0.22462355  0.67888629  0.20637636     0.09400
C419        C  0.23782288  0.65520112  0.13507291    -0.54100
C420        C  0.23231175  0.67145857  0.11999165     0.10000
H421        H  0.27346108  0.66725306  0.20075403     0.14500
H422        H  0.23005686  0.69915895  0.14734466     0.00200
H423        H  0.22317964  0.65524451  0.24868163     0.14800
H424        H  0.23774045  0.64376659  0.11078700     0.14600
C425        C  0.33890539  0.74974134  0.17106868     0.86400
C426        C  0.33038143  0.76483573  0.20118246    -0.53800
C427        C  0.31356040  0.76929246  0.18651061     0.09300
C428        C  0.30717434  0.75903285  0.14017826     0.20300
C429        C  0.32495592  0.73477515  0.17007604    -0.54600
C430        C  0.30849581  0.73949482  0.15438735     0.09400
C431        C  0.33865588  0.75677949  0.11734247    -0.54100
C432        C  0.32200546  0.76151351  0.10057006     0.10000
H433        H  0.33706220  0.77147455  0.23167179     0.14500
H434        H  0.29362424  0.76290632  0.12861110     0.00200
H435        H  0.32787574  0.72133239  0.18131203     0.14800
H436        H  0.35022478  0.75744914  0.09328138     0.14600
C437        C  0.24779171  0.84467902  0.30672679     0.86400
C438        C  0.26361787  0.83689545  0.27730471    -0.53800
C439        C  0.26810431  0.82001314  0.29013895     0.09300
C440        C  0.25716525  0.81295848  0.33458031     0.20300
C441        C  0.23280458  0.83059824  0.30395776    -0.54600
C442        C  0.23767097  0.81403438  0.31772075     0.09400
C443        C  0.25417518  0.84360690  0.36097332    -0.54100
C444        C  0.25895414  0.82704960  0.37608195     0.10000
H445        H  0.27077894  0.84428412  0.24935308     0.14500
H446        H  0.26105466  0.79958778  0.34613145     0.00200
H447        H  0.21922938  0.83361860  0.29286577     0.14800
H448        H  0.25471136  0.85459838  0.38667101     0.14600
C449        C  0.16025529  0.74971534  0.67921250     0.86400
C450        C  0.16787455  0.73516606  0.71248508    -0.53800
C451        C  0.18306794  0.72708004  0.69487132     0.09300
C452        C  0.18986020  0.73569940  0.64589974     0.20300
C453        C  0.17596917  0.76274641  0.67561928    -0.54600
C454        C  0.19133022  0.75565088  0.65781306     0.09400
C455        C  0.15860043  0.74102738  0.62800115    -0.54100
C456        C  0.17410510  0.73418537  0.60956390     0.10000
H457        H  0.16313074  0.73303550  0.74957013     0.14500
H458        H  0.20230331  0.73035291  0.62969292     0.00200
H459        H  0.17490616  0.77671766  0.68501270     0.14800
H460        H  0.14655855  0.74203417  0.60596270     0.14600
C461        C  0.24831485  0.65964655  0.83858126     0.86400
C462        C  0.23251292  0.66624418  0.80749508    -0.53800
C463        C  0.22611544  0.68236782  0.82194763     0.09300
C464        C  0.23556436  0.69022766  0.86820219     0.20300
C465        C  0.26168728  0.67523888  0.83629398    -0.54600
C466        C  0.25532564  0.69125147  0.85233848     0.09400
C467        C  0.24086000  0.65966676  0.89137245    -0.54100
C468        C  0.23491079  0.67563619  0.90807942     0.10000
H469        H  0.22744548  0.65992807  0.77439654     0.14500
H470        H  0.22971656  0.70269146  0.88177368     0.00200
H471        H  0.27527060  0.67362682  0.82263178     0.14800
H472        H  0.24078706  0.64804615  0.91458355     0.14600
C473        C  0.33888629  0.75578825  0.81810880     0.86400
C474        C  0.33951497  0.76423485  0.87060092    -0.53800
C475        C  0.32327550  0.76985622  0.88856207     0.09300
C476        C  0.30785395  0.76675453  0.85157300     0.20300
C477        C  0.32457126  0.74126238  0.82354878    -0.54600
C478        C  0.30856481  0.74671390  0.84205793     0.09400
C479        C  0.33030255  0.77007268  0.78638446    -0.54100
C480        C  0.31390169  0.77541889  0.80251118     0.10000
H481        H  0.35095768  0.76387801  0.89472244     0.14500
H482        H  0.29470350  0.77147980  0.86526512     0.00200
H483        H  0.32720506  0.72745401  0.81499527     0.14800
H484        H  0.33639283  0.77525473  0.75302374     0.14600
C485        C  0.24929377  0.84322559  0.65460730     0.86400
C486        C  0.25787053  0.84360159  0.60322665    -0.53800
C487        C  0.26470786  0.82785085  0.58718249     0.09300
C488        C  0.26229964  0.81287178  0.62527984     0.20300
C489        C  0.23541439  0.82803677  0.65205294    -0.54600
C490        C  0.24205670  0.81229870  0.63617726     0.09400
C491        C  0.26341269  0.83554741  0.68959707    -0.54100
C492        C  0.27072591  0.81979745  0.67421167     0.10000
H493        H  0.25642637  0.85492735  0.57926360     0.14500
H494        H  0.26760132  0.80008409  0.61159833     0.00200
H495        H  0.22162444  0.82922999  0.66434050     0.14800
H496        H  0.26600584  0.84126025  0.72569459     0.14600
O497        O  0.70336612  0.42990853  0.39997181    -0.57900
C498        C  0.71624478  0.41566515  0.26902079     0.74700
O499        O  0.66424205  0.42143714  0.26894714    -0.59100
C500        C  0.69147216  0.43727200  0.42633532     0.74700
C501        C  0.68964503  0.47196112  0.29406732     0.77100
Cd502      Cd  0.68861731  0.43497740  0.32032265     1.37500
O503        O  0.71614848  0.41725505  0.31551119    -0.57900
O504        O  0.70361897  0.46354749  0.30442080    -0.56700
C505        C  0.65780403  0.41200072  0.30317451     0.77000
O506        O  0.67529400  0.46293012  0.29338285    -0.59100
O507        O  0.70383054  0.42345767  0.24657692    -0.57500
O508        O  0.67847627  0.44383521  0.40328354    -0.57500
O509        O  0.66518475  0.41377827  0.34478471    -0.56700
O510        O  0.70106601  0.60861013  0.32385895    -0.57900
C511        C  0.68148080  0.58152823  0.42904132     0.74700
O512        O  0.65618150  0.59655096  0.26648973    -0.59100
C513        C  0.70476464  0.60818742  0.27819858     0.74700
C514        C  0.68345661  0.54800382  0.29441089     0.77100
Cd515      Cd  0.67887868  0.58448997  0.32296832     1.37500
O516        O  0.69362229  0.58878074  0.40324789    -0.57900
O517        O  0.69634095  0.55750922  0.30960114    -0.56700
C518        C  0.64629654  0.60301445  0.29992726     0.77000
O519        O  0.66867935  0.55579312  0.29005482    -0.59100
O520        O  0.66807200  0.57566537  0.40536553    -0.57500
O521        O  0.69690478  0.59620829  0.25344090    -0.57500
O522        O  0.65102393  0.60022303  0.34383607    -0.56700
O523        O  0.40344862  0.71016392  0.29173233    -0.57900
C524        C  0.42988058  0.68788030  0.39444696     0.74700
O525        O  0.41055960  0.65656272  0.25300852    -0.59100
C526        C  0.40012855  0.71069780  0.24605899     0.74700
C527        C  0.45961125  0.68656802  0.25571182     0.77100
Cd528      Cd  0.42304987  0.68460171  0.29017711     1.37500
O529        O  0.42354157  0.70054067  0.36988749    -0.57900
O530        O  0.45049667  0.70010128  0.26586274    -0.56700
C531        C  0.40024317  0.65332070  0.28924218     0.77000
O532        O  0.45121830  0.67192892  0.25732031    -0.59100
O533        O  0.43385773  0.67417401  0.36986330    -0.57500
O534        O  0.40817077  0.69949798  0.21911764    -0.57500
O535        O  0.40056871  0.66450180  0.32404544    -0.56700
O536        O  0.58696890  0.69568317  0.36955494    -0.57900
C537        C  0.59199487  0.71875002  0.24290265     0.74700
O538        O  0.59481099  0.66978019  0.24491032    -0.59100
C539        C  0.57299101  0.69243609  0.39467375     0.74700
C540        C  0.53671642  0.68860146  0.25663819     0.77100
Cd541      Cd  0.57333305  0.68947467  0.28852422     1.37500
O542        O  0.58856381  0.71845643  0.28870223    -0.57900
O543        O  0.54375339  0.70228960  0.27583564    -0.56700
C544        C  0.59375202  0.65728607  0.27554227     0.77000
O545        O  0.54710576  0.67577157  0.24868899    -0.59100
O546        O  0.58593708  0.70583512  0.21789973    -0.57500
O547        O  0.55911905  0.68837941  0.37044675    -0.57500
O548        O  0.58243233  0.65934540  0.30982744    -0.56700
O549        O  0.29308267  0.41032096  0.29286311    -0.57900
C550        C  0.31767902  0.42800531  0.39807016     0.74700
O551        O  0.34250096  0.40364287  0.25692041    -0.59100
C552        C  0.29224804  0.40795203  0.24668760     0.74700
C553        C  0.32149696  0.46246663  0.25746527     0.77100
Cd554      Cd  0.32199327  0.42639501  0.29262675     1.37500
O555        O  0.31491343  0.41378245  0.37412586    -0.57900
O556        O  0.30800056  0.45499006  0.27668303    -0.56700
C557        C  0.35548042  0.40665816  0.28575840     0.77000
O558        O  0.33506109  0.45280587  0.25079991    -0.59100
O559        O  0.32150101  0.44149200  0.37269536    -0.57500
O560        O  0.30510255  0.41442541  0.22178848    -0.57500
O561        O  0.35335313  0.41948299  0.31530077    -0.56700
O562        O  0.32156020  0.56035965  0.38090928    -0.57900
C563        C  0.28710399  0.59523476  0.25910722     0.74700
O564        O  0.33915419  0.59023240  0.25502766    -0.59100
C565        C  0.31209896  0.57045840  0.40747469     0.74700
C566        C  0.31682974  0.53835005  0.26370739     0.77100
Cd567      Cd  0.31515665  0.57436723  0.30182042     1.37500
O568        O  0.28482436  0.58736573  0.29972291    -0.57900
O569        O  0.30211157  0.54616177  0.27020436    -0.56700
C570        C  0.34614941  0.59763200  0.29237551     0.77000
O571        O  0.33068046  0.54765922  0.27178732    -0.59100
O572        O  0.30177261  0.59222259  0.23719838    -0.57500
O573        O  0.30326611  0.58197509  0.38450904    -0.57500
O574        O  0.33911900  0.59369086  0.33339170    -0.56700
O575        O  0.60972960  0.29898918  0.29930095    -0.57900
C576        C  0.58082847  0.31972235  0.40167306     0.74700
O577        O  0.59950357  0.34810121  0.25218137    -0.59100
C578        C  0.61244086  0.29728504  0.25342469     0.74700
C579        C  0.54930450  0.31845847  0.26343541     0.77100
Cd580      Cd  0.58633559  0.32139796  0.29572183     1.37500
O581        O  0.58857590  0.30729818  0.37838391    -0.57900
O582        O  0.55771890  0.30532086  0.27981148    -0.56700
C583        C  0.60631098  0.35453498  0.29125562     0.77000
O584        O  0.55855776  0.33242921  0.25769520    -0.59100
O585        O  0.57488021  0.33203824  0.37529512    -0.57500
O586        O  0.60200372  0.30574593  0.22576294    -0.57500
O587        O  0.60361665  0.34574268  0.32988020    -0.56700
O588        O  0.43253070  0.30693808  0.38572945    -0.57900
C589        C  0.41076862  0.29789082  0.27123288     0.74700
O590        O  0.41806289  0.34539782  0.25799214    -0.59100
C591        C  0.43847562  0.31889931  0.41432192     0.74700
C592        C  0.47212625  0.32231227  0.27310582     0.77100
Cd593      Cd  0.43529931  0.32431146  0.30916853     1.37500
O594        O  0.41232664  0.30143214  0.31673400    -0.57900
O595        O  0.46261649  0.30863618  0.28031867    -0.56700
C596        C  0.41309702  0.35541083  0.29299010     0.77000
O597        O  0.46426240  0.33685546  0.28010208    -0.59100
O598        O  0.42129249  0.30619135  0.24263263    -0.57500
O599        O  0.44373958  0.33300940  0.39362551    -0.57500
O600        O  0.41953290  0.35183857  0.33475274    -0.56700
O601        O  0.41077288  0.29192682  0.73644791    -0.57900
C602        C  0.43366265  0.31826978  0.62851647     0.74700
O603        O  0.41385918  0.34596662  0.77952702    -0.59100
C604        C  0.40630572  0.29304235  0.78151463     0.74700
C605        C  0.46484566  0.31893749  0.76331712     0.77100
Cd606      Cd  0.42762148  0.32021789  0.73388180     1.37500
O607        O  0.42477720  0.30633313  0.65075812    -0.57900
O608        O  0.45566370  0.30514388  0.75477636    -0.56700
C609        C  0.40464884  0.35097235  0.74317066     0.77000
O610        O  0.45625942  0.33330704  0.76302105    -0.59100
O611        O  0.43957943  0.33072451  0.65542809    -0.57500
O612        O  0.41232182  0.30641220  0.80471551    -0.57500
O613        O  0.40624346  0.34192496  0.70399107    -0.56700
O614        O  0.58504232  0.30859660  0.64389923    -0.57900
C615        C  0.60241378  0.29669482  0.76491710     0.74700
O616        O  0.59890791  0.34473516  0.77373832    -0.59100
C617        C  0.57866498  0.32062022  0.61714186     0.74700
C618        C  0.54239115  0.32162783  0.75480583     0.77100
Cd619      Cd  0.57983762  0.32355520  0.72383518     1.37500
O620        O  0.59995096  0.29839945  0.71904374    -0.57900
O621        O  0.55050371  0.30846406  0.73671933    -0.56700
C622        C  0.60297910  0.35455450  0.73764645     0.77000
O623        O  0.55191541  0.33537137  0.76123722    -0.59100
O624        O  0.59339662  0.30683099  0.79268846    -0.57500
O625        O  0.57233419  0.33384337  0.64016177    -0.57500
O626        O  0.59530079  0.35063533  0.69765975    -0.56700
O627        O  0.29313430  0.59749664  0.72175239    -0.57900
C628        C  0.31417956  0.57289363  0.62173093     0.74700
O629        O  0.34084439  0.59323763  0.77861922    -0.59100
C630        C  0.29080950  0.59965811  0.76761045     0.74700
C631        C  0.31677714  0.53987768  0.75665602     0.77100
Cd632      Cd  0.31829970  0.57683317  0.72706194     1.37500
O633        O  0.32789974  0.56725318  0.64363948    -0.57900
O634        O  0.30294761  0.54834449  0.74498860    -0.56700
C635        C  0.34987569  0.59902350  0.74246722     0.77000
O636        O  0.33105385  0.54895402  0.75851049    -0.59100
O637        O  0.30245743  0.58002336  0.64896434    -0.57500
O638        O  0.30077114  0.59062120  0.79528014    -0.57500
O639        O  0.34485832  0.59387413  0.70022980    -0.56700
O640        O  0.30488592  0.41890780  0.63825407    -0.57900
C641        C  0.29225878  0.40231435  0.75879176     0.74700
O642        O  0.34064172  0.40911637  0.76827802    -0.59100
C643        C  0.31601985  0.42748947  0.61225090     0.74700
C644        C  0.31529991  0.46316537  0.75093722     0.77100
Cd645      Cd  0.31865139  0.42638787  0.71840496     1.37500
O646        O  0.29265432  0.40611559  0.71343838    -0.57900
O647        O  0.30181893  0.45386124  0.73924511    -0.56700
C648        C  0.35121309  0.40596761  0.73268914     0.77000
O649        O  0.33002052  0.45506234  0.75076626    -0.59100
O650        O  0.30337712  0.41059346  0.78584897    -0.57500
O651        O  0.32792054  0.43603995  0.63577471    -0.57500
O652        O  0.34718249  0.41318460  0.69251914    -0.56700
O653        O  0.69532685  0.58531104  0.66779463    -0.57900
C654        C  0.70725877  0.60831894  0.78471178     0.74700
O655        O  0.66079640  0.60188796  0.79744316    -0.59100
C656        C  0.68208079  0.57912654  0.64391912     0.74700
C657        C  0.68672779  0.54501275  0.77958901     0.77100
Cd658      Cd  0.68142920  0.58188573  0.75035711     1.37500
O659        O  0.70104414  0.59673911  0.81391117    -0.57900
O660        O  0.69722646  0.55334691  0.75119645    -0.56700
C661        C  0.64839603  0.60170227  0.76586460     0.77000
O662        O  0.67432087  0.55418741  0.79852095    -0.59100
O663        O  0.70256741  0.60657885  0.74010233    -0.57500
O664        O  0.66891098  0.57402763  0.66976443    -0.57500
O665        O  0.65046087  0.59085156  0.73059005    -0.56700
O666        O  0.71949241  0.41491092  0.73841422    -0.57900
C667        C  0.69382323  0.43425916  0.64017759     0.74700
O668        O  0.66677387  0.41426276  0.79002814    -0.59100
C669        C  0.71911251  0.40743280  0.77988959     0.74700
C670        C  0.69219069  0.46808049  0.77723408     0.77100
Cd671      Cd  0.69129960  0.43082517  0.74559861     1.37500
O672        O  0.70582418  0.42672537  0.66486472    -0.57900
O673        O  0.70596186  0.45968340  0.76411564    -0.56700
C674        C  0.65990319  0.40777546  0.75109896     0.77000
O675        O  0.67810190  0.45875120  0.78120560    -0.59100
O676        O  0.68096472  0.44071703  0.66479983    -0.57500
O677        O  0.70658212  0.41210687  0.80878212    -0.57500
O678        O  0.66719734  0.41253291  0.71115609    -0.56700
O679        O  0.59804767  0.71288560  0.70392576    -0.57900
C680        C  0.57542788  0.69063392  0.60899149     0.74700
O681        O  0.59425092  0.66954642  0.77147799    -0.59100
C682        C  0.59910371  0.71798420  0.74830532     0.74700
C683        C  0.53897726  0.68781465  0.74514880     0.77100
Cd684      Cd  0.57639898  0.68865136  0.71581913     1.37500
O685        O  0.58845542  0.68447911  0.63257172    -0.57900
O686        O  0.54742743  0.70217871  0.73795795    -0.56700
C687        C  0.59510051  0.65637298  0.74230741     0.77000
O688        O  0.54829369  0.67396065  0.74272860    -0.59100
O689        O  0.56248523  0.69605521  0.63517956    -0.57500
O690        O  0.58861140  0.71030665  0.77832240    -0.57500
O691        O  0.58640856  0.65785251  0.70272009    -0.56700
O692        O  0.42458312  0.70260146  0.63531458    -0.57900
C693        C  0.39931919  0.71303718  0.74853976     0.74700
O694        O  0.40508187  0.66649429  0.76676198    -0.59100
C695        C  0.42785140  0.68928339  0.60829164     0.74700
C696        C  0.46134103  0.68823958  0.74390481     0.77100
Cd697      Cd  0.42409683  0.68625898  0.71401730     1.37500
O698        O  0.39853816  0.70592072  0.70612399    -0.57900
O699        O  0.45295297  0.70135346  0.72767400    -0.56700
C700        C  0.40392798  0.65406572  0.73519892     0.77000
O701        O  0.45202918  0.67437740  0.75052287    -0.59100
O702        O  0.41206781  0.70798312  0.77552695    -0.57500
O703        O  0.42932753  0.67471190  0.63044477    -0.57500
O704        O  0.41273640  0.65635536  0.69585717    -0.56700
C705        C  0.75703518  0.16185172  0.35026443     0.86400
C706        C  0.74154466  0.16940216  0.32011180    -0.53800
C707        C  0.73596950  0.18572273  0.33505786     0.09300
C708        C  0.74547190  0.19256339  0.38215908     0.20300
C709        C  0.77135476  0.17661701  0.35205883    -0.54600
C710        C  0.76550456  0.19267742  0.36880371     0.09400
C711        C  0.74979524  0.16171591  0.40405240    -0.54100
C712        C  0.74373755  0.17777290  0.42094638     0.10000
H713        H  0.73610925  0.16290510  0.28756592     0.14500
H714        H  0.74030784  0.20543600  0.39576269     0.00200
H715        H  0.78500825  0.17450430  0.33983366     0.14800
H716        H  0.75135485  0.15086309  0.42930700     0.14600
C717        C  0.69719403  0.23442546  0.20599185     0.86400
C718        C  0.67876816  0.24209299  0.21948268    -0.53800
C719        C  0.67374391  0.25600921  0.19091910     0.09300
C720        C  0.68754200  0.26103087  0.15074540     0.20300
C721        C  0.69612222  0.23008459  0.14996022    -0.54600
C722        C  0.69124897  0.24401974  0.12092005     0.09400
C723        C  0.70936585  0.25098927  0.20965842    -0.54100
C724        C  0.70498576  0.26457129  0.17936104     0.10000
H725        H  0.67106184  0.23865575  0.25184050     0.14500
H726        H  0.68310362  0.27210827  0.12735268     0.00200
H727        H  0.69954390  0.21723252  0.13458747     0.14800
H728        H  0.72058420  0.25185723  0.23489275     0.14600
C729        C  0.75759448  0.36005109  0.17633337     0.86400
C730        C  0.74288844  0.34568983  0.18050017    -0.53800
C731        C  0.74752138  0.32935563  0.16326576     0.09300
C732        C  0.76706327  0.32866652  0.14524244     0.20300
C733        C  0.77331491  0.35197062  0.20533312    -0.54600
C734        C  0.77793198  0.33540509  0.18951532     0.09400
C735        C  0.76404808  0.35948824  0.12229885    -0.54100
C736        C  0.76881424  0.34305229  0.10590478     0.10000
H737        H  0.73039707  0.34823247  0.19942457     0.14500
H738        H  0.77136930  0.31550944  0.13138036     0.00200
H739        H  0.77982186  0.35784964  0.23707006     0.14800
H740        H  0.76413578  0.37091119  0.09851430     0.14600
C741        C  0.81920410  0.28301873  0.29856974     0.86400
C742        C  0.80561511  0.26768726  0.30456279    -0.53800
C743        C  0.81016854  0.25502533  0.33779139     0.09300
C744        C  0.82905030  0.25803906  0.35897943     0.20300
C745        C  0.82333790  0.28942720  0.35183101    -0.54600
C746        C  0.82841740  0.27633046  0.38297112     0.09400
C747        C  0.83648544  0.27335916  0.28261809    -0.54100
C748        C  0.84143086  0.26028280  0.31412459     0.10000
H749        H  0.79337889  0.26700913  0.28322607     0.14500
H750        H  0.83357467  0.24782106  0.38509707     0.00200
H751        H  0.82185157  0.30305544  0.36413515     0.14800
H752        H  0.84424686  0.27547833  0.24976558     0.14600
C753        C  0.75888466  0.16539708  0.70494216     0.86400
C754        C  0.75277614  0.16607345  0.65038976    -0.53800
C755        C  0.74864574  0.18258608  0.63350448     0.09300
C756        C  0.75091367  0.19714032  0.67378693     0.20300
C757        C  0.77438241  0.17887482  0.70716518    -0.54600
C758        C  0.77048225  0.19533977  0.69057759     0.09400
C759        C  0.74341697  0.17407779  0.73324019    -0.54100
C760        C  0.73968020  0.19091336  0.71882336     0.10000
H761        H  0.75215464  0.15484616  0.62552036     0.14500
H762        H  0.74742654  0.21061523  0.66160049     0.00200
H763        H  0.78740524  0.17554418  0.72152148     0.14800
H764        H  0.73604915  0.16757225  0.76262558     0.14600
C765        C  0.66378880  0.25696047  0.83713088     0.86400
C766        C  0.67833527  0.27138808  0.83305140    -0.53800
C767        C  0.69497498  0.26661897  0.84801925     0.09300
C768        C  0.69552206  0.24747102  0.86672418     0.20300
C769        C  0.67136301  0.24073114  0.80944384    -0.54600
C770        C  0.68837432  0.23613529  0.82272912     0.09400
C771        C  0.66457033  0.25146169  0.89209446    -0.54100
C772        C  0.68112239  0.24645904  0.90762202     0.10000
H773        H  0.67553711  0.28441606  0.81850532     0.14500
H774        H  0.70864797  0.24363451  0.88119255     0.00200
H775        H  0.66368369  0.23346281  0.78223693     0.14800
H776        H  0.65359569  0.25215500  0.91809411     0.14600
C777        C  0.78539665  0.32464293  0.81227063     0.86400
C778        C  0.77886979  0.34358542  0.80391454    -0.53800
C779        C  0.76413012  0.34814923  0.83121916     0.09300
C780        C  0.75777851  0.33342615  0.86667622     0.20300
C781        C  0.78897418  0.32433625  0.86866778    -0.54600
C782        C  0.77441980  0.32889952  0.89680152     0.09400
C783        C  0.76886433  0.31280581  0.80561235    -0.54100
C784        C  0.75443706  0.31698522  0.83398924     0.10000
H785        H  0.78513109  0.35264057  0.77812622     0.14500
H786        H  0.74622685  0.33699147  0.89014534     0.00200
H787        H  0.80166994  0.32145366  0.88567321     0.14800
H788        H  0.76885807  0.30160863  0.78017255     0.14600
C789        C  0.83629613  0.27123850  0.59490891     0.86400
C790        C  0.85276051  0.26278096  0.61899130    -0.53800
C791        C  0.85061122  0.25923274  0.66822701     0.09300
C792        C  0.83187327  0.26378783  0.68852994     0.20300
C793        C  0.82142816  0.25749907  0.60571466    -0.54600
C794        C  0.81905433  0.25369447  0.65422695     0.09400
C795        C  0.83190333  0.28725010  0.62767395    -0.54100
C796        C  0.82924291  0.28351659  0.67647628     0.10000
H797        H  0.86433405  0.25803678  0.59905472     0.14500
H798        H  0.82974407  0.26034785  0.72787429     0.00200
H799        H  0.81387065  0.25069520  0.57696498     0.14800
H800        H  0.83012251  0.30039487  0.61264302     0.14600
C801        C  0.81470189  0.30848924  0.79324767    -0.20400
C802        C  0.79982819  0.31798619  0.77589619    -0.07000
C803        C  0.79656232  0.31766778  0.72392088     0.13900
C804        C  0.80693880  0.30686417  0.69307629    -0.20500
C805        C  0.82092083  0.29658160  0.71112657    -0.07000
C806        C  0.82536829  0.29807999  0.76161056     0.13900
C807        C  0.84130327  0.28903140  0.78358083    -0.23800
H808        H  0.81791046  0.30839284  0.83195899     0.15200
H809        H  0.80342977  0.30579693  0.65442399     0.15200
C810        C  0.78166366  0.32785570  0.69965271    -0.23800
H811        H  0.84957556  0.29890192  0.80403727     0.05400
H812        H  0.85014817  0.28299551  0.75533014     0.08600
H813        H  0.83668390  0.27866311  0.80965203     0.08600
H814        H  0.78437348  0.34225602  0.70226236     0.08600
H815        H  0.76843279  0.32466547  0.71599006     0.08600
H816        H  0.78061509  0.32475857  0.65961753     0.05400
C817        C  0.70751283  0.29737633  0.85450462    -0.20400
C818        C  0.71057993  0.27918708  0.84613341    -0.07000
C819        C  0.72804826  0.27387687  0.83241250     0.13900
C820        C  0.74186246  0.28644321  0.83200292    -0.20500
C821        C  0.73867194  0.30468322  0.83745048    -0.07000
C822        C  0.72094240  0.31021786  0.84689104     0.13900
C823        C  0.71525564  0.32928928  0.84579528    -0.23800
H824        H  0.69423619  0.30182262  0.86452021     0.15200
H825        H  0.75534839  0.28175183  0.82620677     0.15200
C826        C  0.73240238  0.25562351  0.81317829    -0.23800
H827        H  0.70322237  0.33052602  0.82223775     0.05400
H828        H  0.72550697  0.33808672  0.82922645     0.08600
H829        H  0.71189055  0.33390247  0.88370392     0.08600
H830        H  0.72230157  0.25138742  0.78564707     0.08600
H831        H  0.73351977  0.24607591  0.84364981     0.08600
H832        H  0.74552531  0.25543763  0.79373507     0.05400
C833        C  0.77952500  0.22689891  0.70270110    -0.20400
C834        C  0.78411989  0.20978357  0.68655476    -0.07000
C835        C  0.80089171  0.20717556  0.66268055     0.13900
C836        C  0.81222240  0.22176601  0.65481261    -0.20500
C837        C  0.80739360  0.23882523  0.66983793    -0.07000
C838        C  0.79102017  0.24147144  0.69466305     0.13900
C839        C  0.78541305  0.25973109  0.71076096    -0.23800
H840        H  0.76672514  0.22892575  0.72076990     0.15200
H841        H  0.82482714  0.21997164  0.63547696     0.15200
C842        C  0.80656523  0.18947512  0.64173866    -0.23800
H843        H  0.77202591  0.25956498  0.72873378     0.05400
H844        H  0.78482930  0.26855701  0.67825203     0.08600
H845        H  0.79521038  0.26524049  0.73758223     0.08600
H846        H  0.79578046  0.18352436  0.61880035     0.08600
H847        H  0.81011891  0.18036213  0.67183046     0.08600
H848        H  0.81863608  0.19075541  0.61789488     0.05400
C849        C  0.71369930  0.21115736  0.71890098    -0.20400
C850        C  0.72654771  0.20225440  0.74600088    -0.07000
C851        C  0.72643129  0.20423074  0.79812799     0.13900
C852        C  0.71261626  0.21363553  0.82158113    -0.20500
C853        C  0.69991686  0.22308068  0.79469397    -0.07000
C854        C  0.70080533  0.22190818  0.74201236     0.13900
C855        C  0.68920227  0.23255887  0.70874710    -0.23800
H856        H  0.71393625  0.20989269  0.67900809     0.15200
H857        H  0.71256559  0.21452165  0.86151332     0.15200
C858        C  0.74152378  0.19817416  0.83009896    -0.23800
H859        H  0.69349503  0.23161272  0.66950088     0.05400
H860        H  0.69018962  0.24670260  0.71947575     0.08600
H861        H  0.67532603  0.22736683  0.71016204     0.08600
H862        H  0.75334488  0.19426246  0.80816951     0.08600
H863        H  0.73690981  0.18706679  0.85365646     0.08600
H864        H  0.74605733  0.20928649  0.85423378     0.05400
C865        C  0.84839210  0.27657258  0.45598843    -0.20400
C866        C  0.83121843  0.27871207  0.43660451    -0.07000
C867        C  0.81665842  0.28112757  0.46892581     0.13900
C868        C  0.81944188  0.28020075  0.51981978    -0.20500
C869        C  0.83630940  0.27614913  0.53986315    -0.07000
C870        C  0.85130773  0.27615550  0.50727340     0.13900
C871        C  0.87038571  0.27773615  0.52430817    -0.23800
H872        H  0.85965583  0.27544618  0.43087607     0.15200
H873        H  0.80800012  0.28149754  0.54429214     0.15200
C874        C  0.79793078  0.28341773  0.44991310    -0.23800
H875        H  0.87800717  0.28681700  0.49972385     0.05400
H876        H  0.87688852  0.26459533  0.52283985     0.08600
H877        H  0.87128525  0.28381186  0.56161111     0.08600
H878        H  0.79403037  0.27160940  0.42777888     0.08600
H879        H  0.79725110  0.29542295  0.42672816     0.08600
H880        H  0.78804993  0.28486606  0.48040010     0.05400
C881        C  0.78607316  0.34343822  0.97293193    -0.20400
C882        C  0.77469606  0.33071107  0.95132914    -0.07000
C883        C  0.76281715  0.32094084  0.98160928     0.13900
C884        C  0.76161065  0.32509995  0.03197321    -0.20500
C885        C  0.77206456  0.33866520  0.05308985    -0.07000
C886        C  0.78499693  0.34747394  0.02365333     0.13900
C887        C  0.79802723  0.36064660  0.04560929    -0.23800
H888        H  0.79544553  0.35062920  0.94971434     0.15200
H889        H  0.75200017  0.31803292  0.05477505     0.15200
C890        C  0.75149873  0.30598386  0.96136900    -0.23800
H891        H  0.80809087  0.36510809  0.01796290     0.05400
H892        H  0.80528364  0.35446416  0.07658129     0.08600
H893        H  0.79096006  0.37254851  0.05921781     0.08600
H894        H  0.76002609  0.29646961  0.94076261     0.08600
H895        H  0.74110611  0.31125524  0.93682946     0.08600
H896        H  0.74449416  0.29862959  0.99120745     0.05400
C897        C  0.80480050  0.31656414  0.19603511    -0.20400
C898        C  0.78946855  0.32348391  0.21831163    -0.07000
C899        C  0.78437209  0.31761077  0.26556521     0.13900
C900        C  0.79492715  0.30516973  0.28949585    -0.20500
C901        C  0.81049418  0.29784717  0.26785064    -0.07000
C902        C  0.81547451  0.30391981  0.21974415     0.13900
C903        C  0.83141125  0.29736367  0.19130563    -0.23800
H904        H  0.80827642  0.32098061  0.15919974     0.15200
H905        H  0.79058146  0.30061054  0.32548661     0.15200
C906        C  0.76729990  0.32367069  0.29015985    -0.23800
H907        H  0.83276438  0.30380730  0.15475399     0.05400
H908        H  0.82987002  0.28297767  0.18369667     0.08600
H909        H  0.84384086  0.30066262  0.21175133     0.08600
H910        H  0.75569625  0.32056946  0.26612600     0.08600
H911        H  0.76791446  0.33811233  0.29760924     0.08600
H912        H  0.76496744  0.31699810  0.32602405     0.05400
C913        C  0.69771064  0.25515946  0.98377173    -0.20400
C914        C  0.68528061  0.24375388  0.96113968    -0.07000
C915        C  0.67651166  0.23083994  0.99040899     0.13900
C916        C  0.67908431  0.23081735  0.04211166    -0.20500
C917        C  0.69042842  0.24325741  0.06538656    -0.07000
C918        C  0.70050251  0.25501029  0.03514579     0.13900
C919        C  0.71452202  0.26727884  0.05621847    -0.23800
H920        H  0.70486673  0.26471771  0.96125856     0.15200
H921        H  0.67186984  0.22130680  0.06460147     0.15200
C922        C  0.66490993  0.21673452  0.96696263    -0.23800
H923        H  0.72263700  0.27369285  0.02680178     0.05400
H924        H  0.72378521  0.25977950  0.07990974     0.08600
H925        H  0.70803241  0.27798815  0.07748868     0.08600
H926        H  0.67280798  0.20936244  0.93883888     0.08600
H927        H  0.65316505  0.22273084  0.94905607     0.08600
H928        H  0.65988337  0.20709984  0.99462116     0.05400
C929        C  0.70747565  0.29714802  0.16612587    -0.20400
C930        C  0.71608547  0.28103519  0.17477151    -0.07000
C931        C  0.73504980  0.28101444  0.17728972     0.13900
C932        C  0.74439205  0.29712374  0.17777863    -0.20500
C933        C  0.73593872  0.31319070  0.16773562    -0.07000
C934        C  0.71716914  0.31300608  0.15972671     0.13900
C935        C  0.70722048  0.32886809  0.14113098    -0.23800
H936        H  0.69304181  0.29737674  0.16326898     0.15200
H937        H  0.75868773  0.29684564  0.18387156     0.15200
C938        C  0.74625910  0.26449873  0.17497157    -0.23800
H939        H  0.69368229  0.32509795  0.12767677     0.05400
H940        H  0.71455879  0.33482576  0.10955983     0.08600
H941        H  0.70520300  0.33873303  0.17099218     0.08600
H942        H  0.73866818  0.25259883  0.16299156     0.08600
H943        H  0.75256389  0.26219950  0.21134091     0.08600
H944        H  0.75700845  0.26620183  0.14687538     0.05400
C945        C  0.75223204  0.19488853  0.49666812    -0.20400
C946        C  0.74159726  0.18152313  0.47512324    -0.07000
C947        C  0.73046273  0.17121767  0.50617271     0.13900
C948        C  0.73192853  0.17305945  0.55783735    -0.20500
C949        C  0.74405573  0.18514560  0.57978901    -0.07000
C950        C  0.75346227  0.19701691  0.54830438     0.13900
C951        C  0.76560591  0.21137792  0.56785628    -0.23800
H952        H  0.76042214  0.20317622  0.47297019     0.15200
H953        H  0.72407631  0.16440908  0.58141686     0.15200
C954        C  0.71683263  0.15846257  0.48505986    -0.23800
H955        H  0.77217175  0.21896491  0.53772270     0.05400
H956        H  0.77629043  0.20541514  0.58976946     0.08600
H957        H  0.75789205  0.22097545  0.59033477     0.08600
H958        H  0.72345086  0.14758512  0.46456528     0.08600
H959        H  0.70783073  0.16560967  0.45975048     0.08600
H960        H  0.70846116  0.15237679  0.51448155     0.05400
C961        C  0.80595819  0.22379122  0.36614265    -0.20400
C962        C  0.79815041  0.23980719  0.35172081    -0.07000
C963        C  0.77913537  0.24069722  0.35114558     0.13900
C964        C  0.76901203  0.22510078  0.35611580    -0.20500
C965        C  0.77691883  0.20901232  0.36873611    -0.07000
C966        C  0.79553970  0.20887958  0.37807144     0.13900
C967        C  0.80482571  0.19377797  0.40303863    -0.23800
H968        H  0.82031167  0.22271826  0.36909714     0.15200
H969        H  0.75471556  0.22573279  0.35037347     0.15200
C970        C  0.76870427  0.25767197  0.34840895    -0.23800
H971        H  0.81268398  0.19900273  0.43475405     0.05400
H972        H  0.81409655  0.18721994  0.37664514     0.08600
H973        H  0.79535073  0.18389304  0.41854222     0.08600
H974        H  0.77696893  0.26969722  0.35436795     0.08600
H975        H  0.75847218  0.25788192  0.37829643     0.08600
H976        H  0.76177501  0.25840793  0.31234445     0.05400
C977        C  0.72359985  0.21599555  0.22853837    -0.20400
C978        C  0.70530856  0.21926105  0.23692690    -0.07000
C979        C  0.69669327  0.20927469  0.27494068     0.13900
C980        C  0.70709909  0.19903268  0.30743301    -0.20500
C981        C  0.72564120  0.19729197  0.30108681    -0.07000
C982        C  0.73381198  0.20548970  0.25977365     0.13900
C983        C  0.75336395  0.20388744  0.24707588    -0.23800
H984        H  0.73033201  0.22245398  0.19794047     0.15200
H985        H  0.70056543  0.19176792  0.33691908     0.15200
C986        C  0.67672285  0.20702080  0.27862386    -0.23800
H987        H  0.75972731  0.21723621  0.24710322     0.05400
H988        H  0.75482422  0.19788623  0.20973619     0.08600
H989        H  0.76075361  0.19567700  0.27303201     0.08600
H990        H  0.67023638  0.20901016  0.24240224     0.08600
H991        H  0.67127480  0.21605166  0.30739060     0.08600
H992        H  0.67324119  0.19322873  0.28923460     0.05400
C993        C  0.51011145  0.70369982  0.75273451    -0.20400
C994        C  0.51915412  0.68746801  0.75280751    -0.07000
C995        C  0.50887366  0.67158587  0.75543062     0.13900
C996        C  0.49007888  0.67245321  0.75523861    -0.20500
C997        C  0.48109410  0.68865092  0.75165722    -0.07000
C998        C  0.49135441  0.70454657  0.75152815     0.13900
C999        C  0.48284821  0.72254503  0.74929794    -0.23800
H1000       H  0.51778948  0.71593165  0.75143461     0.15200
H1001       H  0.48235342  0.66023754  0.75563869     0.15200
C1002       C  0.51737387  0.65357823  0.75707773    -0.23800
H1003       H  0.49290458  0.73340679  0.75267132     0.05400
H1004       H  0.47310537  0.72408895  0.78006989     0.08600
H1005       H  0.47605277  0.72421206  0.71334724     0.08600
H1006       H  0.52631478  0.65278805  0.78955729     0.08600
H1007       H  0.52507045  0.65109251  0.72261006     0.08600
H1008       H  0.50723281  0.64279695  0.76035626     0.05400
C1009       C  0.74959119  0.36742839  0.77031254    -0.20400
C1010       C  0.75365053  0.36431929  0.81996652    -0.07000
C1011       C  0.74747554  0.37635716  0.85641169     0.13900
C1012       C  0.73650160  0.39052761  0.84233605    -0.20500
C1013       C  0.73205387  0.39332664  0.79262991    -0.07000
C1014       C  0.73912378  0.38176899  0.75602379     0.13900
C1015       C  0.73520247  0.38387595  0.70178159    -0.23800
H1016       H  0.75435203  0.35825519  0.74231600     0.15200
H1017       H  0.73138773  0.39950441  0.87032549     0.15200
C1018       C  0.75302317  0.37490390  0.90962201    -0.23800
H1019       H  0.74128147  0.37319007  0.67902750     0.05400
H1020       H  0.74083765  0.39662748  0.68845355     0.08600
H1021       H  0.72053548  0.38341005  0.69554603     0.08600
H1022       H  0.76782785  0.37427009  0.91199564     0.08600
H1023       H  0.74700465  0.36301598  0.92680577     0.08600
H1024       H  0.74858199  0.38652005  0.93172096     0.05400
C1025       C  0.61958436  0.61211759  0.73104007    -0.20400
C1026       C  0.63291235  0.61417138  0.76719625    -0.07000
C1027       C  0.63212468  0.62917194  0.79904904     0.13900
C1028       C  0.61886666  0.64199835  0.79178437    -0.20500
C1029       C  0.60654059  0.64068884  0.75284316    -0.07000
C1030       C  0.60660021  0.62513855  0.72301680     0.13900
C1031       C  0.59339063  0.62215185  0.68180034    -0.23800
H1032       H  0.61982404  0.60057990  0.70700588     0.15200
H1033       H  0.61879399  0.65367538  0.81529059     0.15200
C1034       C  0.64558656  0.63235319  0.83948329    -0.23800
H1035       H  0.59484968  0.60886593  0.66444073     0.05400
H1036       H  0.59559514  0.63207146  0.65235899     0.08600
H1037       H  0.57952351  0.62307719  0.69641423     0.08600
H1038       H  0.65918192  0.63396068  0.82334710     0.08600
H1039       H  0.64532413  0.62108950  0.86552784     0.08600
H1040       H  0.64267590  0.64456857  0.86105899     0.05400
C1041       C  0.70437965  0.51742841  0.76927115    -0.20400
C1042       C  0.68873601  0.52547596  0.78726169    -0.07000
C1043       C  0.67498872  0.51442915  0.80671677     0.13900
C1044       C  0.67696308  0.49585753  0.80532691    -0.20500
C1045       C  0.69221071  0.48780248  0.78468368    -0.07000
C1046       C  0.70627383  0.49892742  0.76719430     0.13900
C1047       C  0.72306471  0.49163488  0.74388599    -0.23800
H1048       H  0.71505293  0.52570186  0.75467442     0.15200
H1049       H  0.66616466  0.48753510  0.81897876     0.15200
C1050       C  0.65786257  0.52192366  0.82723855    -0.23800
H1051       H  0.73243111  0.50230237  0.73200814     0.05400
H1052       H  0.71962119  0.48367759  0.71055917     0.08600
H1053       H  0.73024851  0.48336078  0.77085832     0.08600
H1054       H  0.65076581  0.52929481  0.79810733     0.08600
H1055       H  0.66087277  0.53087212  0.85889671     0.08600
H1056       H  0.64864725  0.51137212  0.84067475     0.05400
C1057       C  0.37982257  0.60970917  0.71596663    -0.20400
C1058       C  0.36516854  0.61155790  0.74803926    -0.07000
C1059       C  0.36451568  0.62641503  0.78010742     0.13900
C1060       C  0.37803156  0.63948192  0.77723259    -0.20500
C1061       C  0.39203740  0.63830263  0.74247222    -0.07000
C1062       C  0.39326125  0.62279140  0.71269679     0.13900
C1063       C  0.40846786  0.61985261  0.67681994    -0.23800
H1064       H  0.38041063  0.59818551  0.69190028     0.15200
H1065       H  0.37704505  0.65119346  0.80042872     0.15200
C1066       C  0.34899564  0.62921441  0.81496261    -0.23800
H1067       H  0.40789339  0.60641871  0.65986810     0.05400
H1068       H  0.42145194  0.62119454  0.69628690     0.08600
H1069       H  0.40782570  0.62950098  0.64626422     0.08600
H1070       H  0.34832808  0.61829364  0.84206236     0.08600
H1071       H  0.33630371  0.62961207  0.79388685     0.08600
H1072       H  0.35031505  0.64185597  0.83592950     0.05400
C1073       C  0.29978346  0.51131246  0.75798891    -0.20400
C1074       C  0.31620405  0.52030148  0.76444978    -0.07000
C1075       C  0.33167988  0.51017270  0.77384667     0.13900
C1076       C  0.33053266  0.49159958  0.77222845    -0.20500
C1077       C  0.31444467  0.48262203  0.76134336    -0.07000
C1078       C  0.29863777  0.49270501  0.75648872     0.13900
C1079       C  0.28052439  0.48419134  0.74873780    -0.23800
H1080       H  0.28776150  0.51889369  0.75212022     0.15200
H1081       H  0.34260311  0.48403933  0.77752393     0.15200
C1082       C  0.34964450  0.51859955  0.78441935    -0.23800
H1083       H  0.26969749  0.49414715  0.74771742     0.05400
H1084       H  0.27747346  0.47502092  0.77953561     0.08600
H1085       H  0.28026804  0.47689352  0.71303403     0.08600
H1086       H  0.34855783  0.52762191  0.81683814     0.08600
H1087       H  0.35447704  0.52601397  0.75169794     0.08600
H1088       H  0.35992936  0.50858984  0.79303504     0.05400
C1089       C  0.62978024  0.27946803  0.75107056    -0.20400
C1090       C  0.61614912  0.28435936  0.78374173    -0.07000
C1091       C  0.61679613  0.27825717  0.83284181     0.13900
C1092       C  0.63143546  0.26807219  0.84815772    -0.20500
C1093       C  0.64600029  0.26419261  0.81639039    -0.07000
C1094       C  0.64461973  0.26979984  0.76625522     0.13900
C1095       C  0.65858076  0.26607182  0.72732048    -0.23800
H1096       H  0.62920373  0.28389768  0.71316065     0.15200
H1097       H  0.63152174  0.26405355  0.88609103     0.15200
C1098       C  0.60223988  0.28250999  0.86966085    -0.23800
H1099       H  0.65577077  0.27285121  0.69201813     0.05400
H1100       H  0.65836955  0.25180120  0.71866827     0.08600
H1101       H  0.67200166  0.27068693  0.73894143     0.08600
H1102       H  0.58909566  0.27796924  0.85514423     0.08600
H1103       H  0.60196050  0.29697603  0.87700191     0.08600
H1104       H  0.60439075  0.27588820  0.90555513     0.05400
C1105       C  0.62487463  0.37257203  0.78709455    -0.20400
C1106       C  0.61646501  0.36929713  0.74146765    -0.07000
C1107       C  0.62200300  0.37942852  0.70004050     0.13900
C1108       C  0.63566838  0.39216738  0.70546351    -0.20500
C1109       C  0.64438433  0.39513466  0.75065526    -0.07000
C1110       C  0.63877363  0.38521553  0.79221116     0.13900
C1111       C  0.64770279  0.38733860  0.84166127    -0.23800
H1112       H  0.62086353  0.36486699  0.81890512     0.15200
H1113       H  0.63982836  0.39969895  0.67345435     0.15200
C1114       C  0.61404789  0.37682812  0.64934222    -0.23800
H1115       H  0.64189826  0.37821110  0.86953568     0.05400
H1116       H  0.64593604  0.40106050  0.85568519     0.08600
H1117       H  0.66217655  0.38437200  0.83814489     0.08600
H1118       H  0.59944125  0.37931707  0.65064984     0.08600
H1119       H  0.61664224  0.36318058  0.63575596     0.08600
H1120       H  0.61997158  0.38605824  0.62191227     0.05400
C1121       C  0.39118270  0.37653674  0.70156666    -0.20400
C1122       C  0.39266195  0.36656781  0.74472785    -0.07000
C1123       C  0.38171173  0.37085800  0.78575165     0.13900
C1124       C  0.36900131  0.38442364  0.78150987    -0.20500
C1125       C  0.36676220  0.39374906  0.73715005    -0.07000
C1126       C  0.37851656  0.39001308  0.69704952     0.13900
C1127       C  0.37777428  0.39974567  0.64870276    -0.23800
H1128       H  0.39978000  0.37341399  0.67039403     0.15200
H1129       H  0.36024374  0.38722212  0.81254131     0.15200
C1130       C  0.38260889  0.36055829  0.83302433    -0.23800
H1131       H  0.38852426  0.39551920  0.62283664     0.05400
H1132       H  0.37952209  0.41418311  0.65531454     0.08600
H1133       H  0.36483330  0.39701566  0.63010482     0.08600
H1134       H  0.39610032  0.36207175  0.84951736     0.08600
H1135       H  0.37979929  0.34633200  0.82545851     0.08600
H1136       H  0.37267163  0.36527791  0.86064980     0.05400
C1137       C  0.49367547  0.33489929  0.77677160    -0.20400
C1138       C  0.48468720  0.31864522  0.76985786    -0.07000
C1139       C  0.49503676  0.30308179  0.76416890     0.13900
C1140       C  0.51381867  0.30448681  0.76228649    -0.20500
C1141       C  0.52273373  0.32095013  0.76540593    -0.07000
C1142       C  0.51242008  0.33632375  0.77433222     0.13900
C1143       C  0.52080211  0.35448423  0.77928019    -0.23800
H1144       H  0.48593784  0.34683302  0.78189810     0.15200
H1145       H  0.52158132  0.29260703  0.75640497     0.15200
C1146       C  0.48661501  0.28494743  0.75846111    -0.23800
H1147       H  0.51065137  0.36486409  0.78620492     0.05400
H1148       H  0.52797221  0.35798089  0.74467193     0.08600
H1149       H  0.53020369  0.35477182  0.81085914     0.08600
H1150       H  0.47870784  0.28422613  0.72393391     0.08600
H1151       H  0.47789406  0.28207844  0.79077458     0.08600
H1152       H  0.49681781  0.27437772  0.75620485     0.05400
C1153       C  0.42894527  0.30378950  0.54655994    -0.20400
C1154       C  0.43658470  0.31780839  0.57396025    -0.07000
C1155       C  0.44622343  0.33120811  0.54832765     0.13900
C1156       C  0.44727123  0.33050404  0.49663638    -0.20500
C1157       C  0.43875315  0.31707222  0.46908642    -0.07000
C1158       C  0.42975428  0.30326278  0.49468944     0.13900
C1159       C  0.42044844  0.28817171  0.46817308    -0.23800
H1160       H  0.42177579  0.29336128  0.56576966     0.15200
H1161       H  0.45440923  0.34096117  0.47745512     0.15200
C1162       C  0.45519481  0.34661701  0.57436553    -0.23800
H1163       H  0.41417554  0.27867312  0.49429305     0.05400
H1164       H  0.43025258  0.28072681  0.44538212     0.08600
H1165       H  0.40965747  0.29334922  0.44446130     0.08600
H1166       H  0.46527405  0.34170244  0.60075011     0.08600
H1167       H  0.44503971  0.35469117  0.59405619     0.08600
H1168       H  0.46228835  0.35552596  0.54819247     0.05400
C1169       C  0.64343287  0.28701613  0.26331557    -0.20400
C1170       C  0.62786291  0.28686911  0.23454658    -0.07000
C1171       C  0.62777347  0.27720404  0.18947881     0.13900
C1172       C  0.64308220  0.26755798  0.17534510    -0.20500
C1173       C  0.65840130  0.26740811  0.20506023    -0.07000
C1174       C  0.65870412  0.27762221  0.24902405     0.13900
C1175       C  0.67523147  0.27902686  0.28060776    -0.23800
H1176       H  0.64374636  0.29475753  0.29718853     0.15200
H1177       H  0.64298268  0.25979794  0.14151281     0.15200
C1178       C  0.61145510  0.27644730  0.15717518    -0.23800
H1179       H  0.67329155  0.28818371  0.31244114     0.05400
H1180       H  0.68659612  0.28418254  0.25830096     0.08600
H1181       H  0.67869501  0.26590905  0.29563896     0.08600
H1182       H  0.60839878  0.28986791  0.14342528     0.08600
H1183       H  0.59985720  0.27124548  0.17854593     0.08600
H1184       H  0.61347811  0.26766366  0.12457259     0.05400
C1185       C  0.57377916  0.33479291  0.53581865    -0.20400
C1186       C  0.57880996  0.31966987  0.56199412    -0.07000
C1187       C  0.58406403  0.30441188  0.53483391     0.13900
C1188       C  0.58419897  0.30482200  0.48289883    -0.20500
C1189       C  0.57930179  0.32000168  0.45674590    -0.07000
C1190       C  0.57395556  0.33523191  0.48397703     0.13900
C1191       C  0.56871997  0.35223477  0.45934288    -0.23800
H1192       H  0.56984552  0.34656063  0.55611930     0.15200
H1193       H  0.58833034  0.29313967  0.46252722     0.15200
C1194       C  0.58957029  0.28756135  0.55975352    -0.23800
H1195       H  0.56531974  0.36276266  0.48657816     0.05400
H1196       H  0.55674713  0.34994542  0.43599530     0.08600
H1197       H  0.58001378  0.35727521  0.43658912     0.08600
H1198       H  0.57849741  0.28260519  0.58353646     0.08600
H1199       H  0.60174305  0.28999895  0.58219885     0.08600
H1200       H  0.59277907  0.27693718  0.53263208     0.05400
C1201       C  0.52104983  0.33445449  0.24670737    -0.20400
C1202       C  0.52950642  0.31822393  0.25532524    -0.07000
C1203       C  0.51863115  0.30286592  0.26113439     0.13900
C1204       C  0.49990542  0.30456414  0.26348369    -0.20500
C1205       C  0.49158472  0.32114539  0.26041952    -0.07000
C1206       C  0.50234900  0.33616244  0.24920560     0.13900
C1207       C  0.49446012  0.35416448  0.24062215    -0.23800
H1208       H  0.52916518  0.34620139  0.24053842     0.15200
H1209       H  0.49177556  0.29287034  0.27027427     0.15200
C1210       C  0.52646038  0.28464353  0.26582700    -0.23800
H1211       H  0.50478935  0.36396287  0.22895721     0.05400
H1212       H  0.48830194  0.35930285  0.27515049     0.08600
H1213       H  0.48429188  0.35328324  0.21094751     0.08600
H1214       H  0.53405942  0.28365275  0.30072913     0.08600
H1215       H  0.53536112  0.28186132  0.23380666     0.08600
H1216       H  0.51590921  0.27418511  0.26653264     0.05400
C1217       C  0.32341990  0.55963591  0.54139467    -0.20400
C1218       C  0.31223048  0.57137882  0.56719706    -0.07000
C1219       C  0.30006131  0.58175987  0.54014697     0.13900
C1220       C  0.30007748  0.58068509  0.48839218    -0.20500
C1221       C  0.31174482  0.56944509  0.46241114    -0.07000
C1222       C  0.32330958  0.55841667  0.48962366     0.13900
C1223       C  0.33585175  0.54550233  0.46499798    -0.23800
H1224       H  0.33252665  0.55143478  0.56191592     0.15200
H1225       H  0.29103409  0.58899430  0.46801402     0.15200
C1226       C  0.28728674  0.59440732  0.56494848    -0.23800
H1227       H  0.34362768  0.53789558  0.49229515     0.05400
H1228       H  0.34561478  0.55271589  0.44137493     0.08600
H1229       H  0.32809589  0.53579880  0.44248762     0.08600
H1230       H  0.29485965  0.60441374  0.58689951     0.08600
H1231       H  0.27789125  0.58699370  0.58920989     0.08600
H1232       H  0.27910544  0.60165202  0.53778944     0.05400
C1233       C  0.30697709  0.41534901  0.47728510    -0.20400
C1234       C  0.31675602  0.42862253  0.45278242    -0.07000
C1235       C  0.32618554  0.44148388  0.48108720     0.13900
C1236       C  0.32531663  0.44082757  0.53275211    -0.20500
C1237       C  0.31548514  0.42761060  0.55737915    -0.07000
C1238       C  0.30626262  0.41458324  0.52904488     0.13900
C1239       C  0.29613986  0.39945507  0.55256141    -0.23800
H1240       H  0.29993085  0.40536460  0.45573113     0.15200
H1241       H  0.33256615  0.45071166  0.55413569     0.15200
C1242       C  0.33780404  0.45556774  0.45761447    -0.23800
H1243       H  0.29046713  0.39018421  0.52456617     0.05400
H1244       H  0.28481574  0.40460707  0.57489962     0.08600
H1245       H  0.30526198  0.39178197  0.57628821     0.08600
H1246       H  0.32946710  0.46459320  0.43551404     0.08600
H1247       H  0.34810153  0.44929455  0.43369916     0.08600
H1248       H  0.34490938  0.46379650  0.48561814     0.05400
C1249       C  0.37411947  0.38318643  0.24653601    -0.20400
C1250       C  0.37182430  0.39532420  0.28561389    -0.07000
C1251       C  0.38445432  0.39535917  0.32465438     0.13900
C1252       C  0.39818183  0.38270856  0.32462138    -0.20500
C1253       C  0.39990053  0.36999285  0.28670515    -0.07000
C1254       C  0.38791534  0.37064170  0.24633485     0.13900
C1255       C  0.38900331  0.35780896  0.20352478    -0.23800
H1256       H  0.36473312  0.38319870  0.21619551     0.15200
H1257       H  0.40741629  0.38247991  0.35531209     0.15200
C1258       C  0.38339333  0.40820796  0.36747165    -0.23800
H1259       H  0.37846729  0.36021499  0.17568694     0.05400
H1260       H  0.38720004  0.34404198  0.21682504     0.08600
H1261       H  0.40214801  0.35925469  0.18465182     0.08600
H1262       H  0.37053250  0.40637447  0.38755541     0.08600
H1263       H  0.38456127  0.42199040  0.35384399     0.08600
H1264       H  0.39435148  0.40623105  0.39434556     0.05400
C1265       C  0.30485009  0.48980412  0.23828710    -0.20400
C1266       C  0.32138290  0.48174167  0.24692158    -0.07000
C1267       C  0.33677313  0.49258679  0.25288905     0.13900
C1268       C  0.33490899  0.51106736  0.25450364    -0.20500
C1269       C  0.31807243  0.51912647  0.25095184    -0.07000
C1270       C  0.30294145  0.50829798  0.24018389     0.13900
C1271       C  0.28462753  0.51588228  0.23193776    -0.23800
H1272       H  0.29311336  0.48150817  0.23253211     0.15200
H1273       H  0.34665166  0.51920712  0.26156171     0.15200
C1274       C  0.35504828  0.48488407  0.26093390    -0.23800
H1275       H  0.27477160  0.50550021  0.22089453     0.05400
H1276       H  0.28525989  0.52580391  0.20196234     0.08600
H1277       H  0.27956305  0.52210199  0.26644839     0.08600
H1278       H  0.35893383  0.47669666  0.22846873     0.08600
H1279       H  0.35495390  0.47665222  0.29469073     0.08600
H1280       H  0.36545124  0.49534633  0.26580637     0.05400
C1281       C  0.58923399  0.68834359  0.47288946    -0.20400
C1282       C  0.57321260  0.69265899  0.44942657    -0.07000
C1283       C  0.55798010  0.69662055  0.47859405     0.13900
C1284       C  0.55923149  0.69604611  0.53033836    -0.20500
C1285       C  0.57521042  0.69136418  0.55397431    -0.07000
C1286       C  0.59046042  0.68747339  0.52445603     0.13900
C1287       C  0.60818997  0.68239735  0.54631920    -0.23800
H1288       H  0.60087200  0.68522429  0.45053137     0.15200
H1289       H  0.54752427  0.69910848  0.55244668     0.15200
C1290       C  0.54048385  0.70186271  0.45572062    -0.23800
H1291       H  0.61857695  0.68024175  0.51748284     0.05400
H1292       H  0.60672021  0.66983502  0.56697971     0.08600
H1293       H  0.61313015  0.69312846  0.57113449     0.08600
H1294       H  0.53483868  0.69064103  0.43396400     0.08600
H1295       H  0.54261696  0.71347062  0.43143707     0.08600
H1296       H  0.53038635  0.70553618  0.48412943     0.05400
C1297       C  0.42382440  0.70339063  0.47384371    -0.20400
C1298       C  0.43153228  0.68887299  0.44915757    -0.07000
C1299       C  0.43931508  0.67528857  0.47756932     0.13900
C1300       C  0.43841060  0.67629810  0.52924849    -0.20500
C1301       C  0.42981726  0.69031403  0.55377977    -0.07000
C1302       C  0.42272147  0.70426011  0.52555045     0.13900
C1303       C  0.41327074  0.71975457  0.54906555    -0.23800
H1304       H  0.41795261  0.71389816  0.45252067     0.15200
H1305       H  0.44415290  0.66575568  0.55073640     0.15200
C1306       C  0.44838647  0.65949048  0.45441006    -0.23800
H1307       H  0.40807755  0.72903168  0.52109497     0.05400
H1308       H  0.42269223  0.72732891  0.57292499     0.08600
H1309       H  0.40170038  0.71496960  0.57128627     0.08600
H1310       H  0.45936124  0.66398763  0.42959944     0.08600
H1311       H  0.43851990  0.65137655  0.43344152     0.08600
H1312       H  0.45434679  0.65074848  0.48255034     0.05400
C1313       C  0.38150437  0.63074944  0.24570010    -0.20400
C1314       C  0.38793710  0.63773006  0.29046313    -0.07000
C1315       C  0.38177829  0.63024599  0.33533114     0.13900
C1316       C  0.36869320  0.61681198  0.33409419    -0.20500
C1317       C  0.36137691  0.61053826  0.28946638    -0.07000
C1318       C  0.36823997  0.61738610  0.24446985     0.13900
C1319       C  0.36145976  0.61116202  0.19493521    -0.23800
H1320       H  0.38636137  0.63630433  0.21133892     0.15200
H1321       H  0.36387123  0.61143200  0.36870495     0.15200
C1322       C  0.38900560  0.63607253  0.38487549    -0.23800
H1323       H  0.36845186  0.61793805  0.16402546     0.05400
H1324       H  0.34697656  0.61402454  0.19171612     0.08600
H1325       H  0.36374716  0.59673792  0.19050358     0.08600
H1326       H  0.38511034  0.64992224  0.39304999     0.08600
H1327       H  0.40380750  0.63495537  0.38500764     0.08600
H1328       H  0.38365376  0.62778336  0.41535027     0.05400
C1329       C  0.48879153  0.67161916  0.24419238    -0.20400
C1330       C  0.47925209  0.68755579  0.24625533    -0.07000
C1331       C  0.48895812  0.70380481  0.24477830     0.13900
C1332       C  0.50772823  0.70355625  0.24480414    -0.20500
C1333       C  0.51720475  0.68763420  0.24678979    -0.07000
C1334       C  0.50756630  0.67139753  0.24500969     0.13900
C1335       C  0.51675264  0.65373029  0.24690647    -0.23800
H1336       H  0.48152011  0.65914051  0.24474413     0.15200
H1337       H  0.51507517  0.71600220  0.24536583     0.15200
C1338       C  0.47989184  0.72156014  0.24450318    -0.23800
H1339       H  0.50703714  0.64251196  0.24610802     0.05400
H1340       H  0.52452808  0.65272188  0.28156123     0.08600
H1341       H  0.52576443  0.65219410  0.21449391     0.08600
H1342       H  0.47265232  0.72377318  0.27984356     0.08600
H1343       H  0.47046870  0.72217791  0.21303953     0.08600
H1344       H  0.48965868  0.73263783  0.24041844     0.05400
C1345       C  0.66767480  0.57303614  0.50928608    -0.20400
C1346       C  0.68252721  0.58010319  0.48389453    -0.07000
C1347       C  0.69763734  0.58574059  0.51159184     0.13900
C1348       C  0.69711396  0.58478238  0.56335514    -0.20500
C1349       C  0.68198610  0.57838011  0.58883305    -0.07000
C1350       C  0.66714698  0.57206661  0.56103533     0.13900
C1351       C  0.65055562  0.56439276  0.58495608    -0.23800
H1352       H  0.65615630  0.56844567  0.48850822     0.15200
H1353       H  0.70861908  0.58939430  0.58414948     0.15200
C1354       C  0.71442503  0.59287554  0.48751019    -0.23800
H1355       H  0.64057326  0.55986640  0.55724386     0.05400
H1356       H  0.64400574  0.57457022  0.60845971     0.08600
H1357       H  0.65412291  0.55274053  0.60744342     0.08600
H1358       H  0.71142787  0.60520662  0.46730558     0.08600
H1359       H  0.72001609  0.58280643  0.46179873     0.08600
H1360       H  0.72494112  0.59617654  0.51499628     0.05400
C1361       C  0.63302091  0.62653100  0.24954820    -0.20400
C1362       C  0.63096333  0.61446371  0.28826006    -0.07000
C1363       C  0.61522080  0.61486458  0.31728716     0.13900
C1364       C  0.60270416  0.62826636  0.30946901    -0.20500
C1365       C  0.60561961  0.64154091  0.27405444    -0.07000
C1366       C  0.62071297  0.64018323  0.24226061     0.13900
C1367       C  0.62453705  0.65334686  0.20193707    -0.23800
H1368       H  0.64498340  0.62599186  0.22679829     0.15200
H1369       H  0.59093413  0.62880476  0.33293667     0.15200
C1370       C  0.61147845  0.60122875  0.35642566    -0.23800
H1371       H  0.63671653  0.64988275  0.18040390     0.05400
H1372       H  0.62681505  0.66671987  0.21813805     0.08600
H1373       H  0.61314890  0.65360970  0.17583002     0.08600
H1374       H  0.62141055  0.60243183  0.38654768     0.08600
H1375       H  0.61204919  0.58775054  0.33985382     0.08600
H1376       H  0.59800266  0.60290150  0.37321274     0.05400
C1377       C  0.72454334  0.39813587  0.19514756    -0.20400
C1378       C  0.72932060  0.40443292  0.24204639    -0.07000
C1379       C  0.74582181  0.39915884  0.26217545     0.13900
C1380       C  0.75593492  0.38616535  0.23756425    -0.20500
C1381       C  0.74994118  0.37797981  0.19350406    -0.07000
C1382       C  0.73461956  0.38528389  0.17021053     0.13900
C1383       C  0.72822712  0.37958868  0.11955019    -0.23800
H1384       H  0.71233716  0.40280746  0.17846069     0.15200
H1385       H  0.76811423  0.38208671  0.25484136     0.15200
C1386       C  0.75293628  0.40706434  0.30956553    -0.23800
H1387       H  0.71539299  0.38591916  0.10974908     0.05400
H1388       H  0.72591304  0.36513520  0.11730767     0.08600
H1389       H  0.73803422  0.38375159  0.09107103     0.08600
H1390       H  0.74424185  0.40323803  0.34108475     0.08600
H1391       H  0.75357687  0.42171053  0.30661830     0.08600
H1392       H  0.76662570  0.40236583  0.31778647     0.05400
C1393       C  0.70354788  0.42504056  0.50392291    -0.20400
C1394       C  0.69255160  0.43751890  0.48115325    -0.07000
C1395       C  0.68268502  0.44941560  0.51122970     0.13900
C1396       C  0.68377179  0.44815424  0.56276495    -0.20500
C1397       C  0.69442701  0.43540669  0.58550100    -0.07000
C1398       C  0.70458415  0.42373637  0.55549380     0.13900
C1399       C  0.71608897  0.40945834  0.57700453    -0.23800
H1400       H  0.71110593  0.41588723  0.48115568     0.15200
H1401       H  0.67609943  0.45720693  0.58556260     0.15200
C1402       C  0.67115323  0.46367528  0.48982755    -0.23800
H1403       H  0.72245758  0.40119525  0.54784832     0.05400
H1404       H  0.70779965  0.40054610  0.60038409     0.08600
H1405       H  0.72698924  0.41551794  0.59931338     0.08600
H1406       H  0.65984551  0.45762510  0.46912701     0.08600
H1407       H  0.67930078  0.47219934  0.46500862     0.08600
H1408       H  0.66531293  0.47231762  0.51898783     0.05400
C1409       C  0.63231456  0.39492959  0.33746842    -0.20400
C1410       C  0.64276109  0.39920405  0.29604233    -0.07000
C1411       C  0.63956835  0.39005550  0.25099503     0.13900
C1412       C  0.62691683  0.37608549  0.24975727    -0.20500
C1413       C  0.61741638  0.37100317  0.29234637    -0.07000
C1414       C  0.61968698  0.38109873  0.33631437     0.13900
C1415       C  0.60886272  0.37757005  0.38244085    -0.23800
H1416       H  0.63438549  0.40220870  0.37165823     0.15200
H1417       H  0.62504295  0.36858294  0.21587339     0.15200
C1418       C  0.64997989  0.39431309  0.20476035    -0.23800
H1419       H  0.61124591  0.38783562  0.41131968     0.05400
H1420       H  0.61258792  0.36468199  0.39855976     0.08600
H1421       H  0.59437726  0.37761768  0.37357869     0.08600
H1422       H  0.66450565  0.39254317  0.21125221     0.08600
H1423       H  0.64741450  0.40817476  0.19375623     0.08600
H1424       H  0.64605221  0.38555522  0.17342961     0.05400
C1425       C  0.67363262  0.49907120  0.26985036    -0.20400
C1426       C  0.68963505  0.49140208  0.28563213    -0.07000
C1427       C  0.70434733  0.50264243  0.29743469     0.13900
C1428       C  0.70213375  0.52106193  0.29644325    -0.20500
C1429       C  0.68557205  0.52868689  0.28526139    -0.07000
C1430       C  0.67127511  0.51746594  0.27006896     0.13900
C1431       C  0.65323412  0.52448380  0.25565880    -0.23800
H1432       H  0.66247326  0.49056817  0.25958700     0.15200
H1433       H  0.71325756  0.52954363  0.30713344     0.15200
C1434       C  0.72220249  0.49558141  0.31336201    -0.23800
H1435       H  0.64403227  0.51375498  0.24301965     0.05400
H1436       H  0.65479514  0.53398860  0.22487268     0.08600
H1437       H  0.64677516  0.53102344  0.28787150     0.08600
H1438       H  0.72785619  0.48700400  0.28381714     0.08600
H1439       H  0.72061257  0.48797788  0.34801526     0.08600
H1440       H  0.73206141  0.50637591  0.32069018     0.05400
C1441       C  0.37202596  0.74680961  0.82358942    -0.20400
C1442       C  0.35608273  0.74757618  0.79585674    -0.07000
C1443       C  0.35582770  0.73847496  0.74933613     0.13900
C1444       C  0.37041073  0.72800559  0.73511575    -0.20500
C1445       C  0.38547905  0.72600944  0.76507172    -0.07000
C1446       C  0.38648130  0.73601041  0.80940809     0.13900
C1447       C  0.40258508  0.73531995  0.84259476    -0.23800
H1448       H  0.37334166  0.75411661  0.85760790     0.15200
H1449       H  0.36972571  0.72079623  0.70042175     0.15200
C1450       C  0.34025789  0.73910343  0.71384136    -0.23800
H1451       H  0.40135035  0.74445301  0.87475124     0.05400
H1452       H  0.41478788  0.73923362  0.82167653     0.08600
H1453       H  0.40409594  0.72175375  0.85729814     0.08600
H1454       H  0.33834158  0.75272665  0.70039789     0.08600
H1455       H  0.32778470  0.73400076  0.73082123     0.08600
H1456       H  0.34259512  0.73079890  0.68044605     0.05400
C1457       C  0.30423975  0.80517778  0.77378571    -0.20400
C1458       C  0.30240316  0.78671666  0.77110074    -0.07000
C1459       C  0.29147526  0.77924100  0.73383253     0.13900
C1460       C  0.28154583  0.79031515  0.70319219    -0.20500
C1461       C  0.28291763  0.80889440  0.70608075    -0.07000
C1462       C  0.29533585  0.81630458  0.74048165     0.13900
C1463       C  0.30084340  0.83554884  0.74054047    -0.23800
H1464       H  0.31351442  0.81091118  0.80024379     0.15200
H1465       H  0.27278372  0.78413519  0.67651488     0.15200
C1466       C  0.29076536  0.75956667  0.72451645    -0.23800
H1467       H  0.31565629  0.83668479  0.74222615     0.05400
H1468       H  0.29505983  0.84238124  0.77327165     0.08600
H1469       H  0.29692912  0.84236869  0.70632263     0.08600
H1470       H  0.28598000  0.75261967  0.75766198     0.08600
H1471       H  0.30428661  0.75479875  0.71466419     0.08600
H1472       H  0.28163194  0.75597236  0.69373489     0.05400
C1473       C  0.25263791  0.63270255  0.78075986    -0.20400
C1474       C  0.25761457  0.64212134  0.82396239    -0.07000
C1475       C  0.27251404  0.63561317  0.85120599     0.13900
C1476       C  0.28227048  0.62116615  0.83276744    -0.20500
C1477       C  0.27806134  0.61292087  0.78783669    -0.07000
C1478       C  0.26266764  0.61840623  0.76227065     0.13900
C1479       C  0.25654113  0.60917932  0.71561124    -0.23800
H1480       H  0.24120393  0.63657106  0.75969470     0.15200
H1481       H  0.29388486  0.61671973  0.85280125     0.15200
C1482       C  0.27887030  0.64372894  0.89947302    -0.23800
H1483       H  0.24355896  0.61434474  0.70250749     0.05400
H1484       H  0.25477065  0.59479514  0.72247114     0.08600
H1485       H  0.26645051  0.61124653  0.68554416     0.08600
H1486       H  0.26879967  0.64181164  0.92901279     0.08600
H1487       H  0.28211253  0.65795498  0.89561146     0.08600
H1488       H  0.29125226  0.63737212  0.91281985     0.05400
C1489       C  0.28496581  0.70387911  0.87321034    -0.20400
C1490       C  0.26749965  0.70707681  0.85670471    -0.07000
C1491       C  0.26281037  0.72479983  0.84525797     0.13900
C1492       C  0.27633040  0.73787958  0.84387869    -0.20500
C1493       C  0.29410486  0.73391637  0.85501789    -0.07000
C1494       C  0.29793995  0.71720782  0.87517878     0.13900
C1495       C  0.31519245  0.71312744  0.90124387    -0.23800
H1496       H  0.28847897  0.69085994  0.88633529     0.15200
H1497       H  0.27302448  0.75119007  0.83289167     0.15200
C1498       C  0.24403907  0.73046597  0.83390179    -0.23800
H1499       H  0.31210513  0.70777816  0.93842870     0.05400
H1500       H  0.32373258  0.72501348  0.90730314     0.08600
H1501       H  0.32276726  0.70304657  0.87989287     0.08600
H1502       H  0.23573880  0.73013791  0.86782838     0.08600
H1503       H  0.23811313  0.72206932  0.80482416     0.08600
H1504       H  0.24367042  0.74431273  0.82057814     0.05400
C1505       C  0.20472563  0.77941183  0.60801936    -0.20400
C1506       C  0.20675900  0.76733918  0.64656684    -0.07000
C1507       C  0.22110844  0.76950658  0.67973339     0.13900
C1508       C  0.23308429  0.78376178  0.67354971    -0.20500
C1509       C  0.23079181  0.79608158  0.63572886    -0.07000
C1510       C  0.21628065  0.79400809  0.60285887     0.13900
C1511       C  0.21215245  0.80767050  0.56437366    -0.23800
H1512       H  0.19320582  0.77810339  0.58403909     0.15200
H1513       H  0.24348857  0.78601071  0.70053504     0.15200
C1514       C  0.22321877  0.75748666  0.72325561    -0.23800
H1515       H  0.20038992  0.80374308  0.54175560     0.05400
H1516       H  0.22361104  0.80947331  0.53900243     0.08600
H1517       H  0.20909095  0.82053479  0.58236582     0.08600
H1518       H  0.22588753  0.74390283  0.70991781     0.08600
H1519       H  0.21088277  0.75751911  0.74626997     0.08600
H1520       H  0.23461382  0.76168088  0.74689585     0.05400
C1521       C  0.21133378  0.71032556  0.71317888    -0.20400
C1522       C  0.19316487  0.71333312  0.72408356    -0.07000
C1523       C  0.18552983  0.70367170  0.76431053     0.13900
C1524       C  0.19676124  0.69486221  0.79748838    -0.20500
C1525       C  0.21500591  0.69293289  0.78771873    -0.07000
C1526       C  0.22209110  0.69974128  0.74309253     0.13900
C1527       C  0.24107119  0.69609724  0.72670343    -0.23800
H1528       H  0.21750594  0.71618672  0.68120818     0.15200
H1529       H  0.19099911  0.68833017  0.82941281     0.15200
C1530       C  0.16571788  0.70037183  0.77055688    -0.23800
H1531       H  0.24444857  0.70285328  0.69157297     0.05400
H1532       H  0.24284698  0.68169869  0.72041725     0.08600
H1533       H  0.25076801  0.70076659  0.75476397     0.08600
H1534       H  0.15804255  0.70361463  0.73701086     0.08600
H1535       H  0.16060846  0.70786523  0.80303426     0.08600
H1536       H  0.16320515  0.68604169  0.77679783     0.05400
C1537       C  0.27590819  0.83601310  0.45188375    -0.20400
C1538       C  0.26422393  0.82375415  0.42889640    -0.07000
C1539       C  0.25623256  0.81040592  0.45872799     0.13900
C1540       C  0.25896006  0.81071273  0.51008030    -0.20500
C1541       C  0.26818614  0.82465701  0.53332255    -0.07000
C1542       C  0.27794195  0.83668812  0.50356369     0.13900
C1543       C  0.29084930  0.84993915  0.52589491    -0.23800
H1544       H  0.28279478  0.84575820  0.42940148     0.15200
H1545       H  0.25239459  0.80082714  0.53266998     0.15200
C1546       C  0.24317005  0.79693850  0.43873145    -0.23800
H1547       H  0.29841013  0.85723530  0.49697904     0.05400
H1548       H  0.30066056  0.84292713  0.54911307     0.08600
H1549       H  0.28382521  0.85990375  0.54877232     0.08600
H1550       H  0.24973231  0.78789542  0.41211564     0.08600
H1551       H  0.23196457  0.80398509  0.42173659     0.08600
H1552       H  0.23735813  0.78848849  0.46822451     0.05400
C1553       C  0.37211670  0.74076488  0.16415994    -0.20400
C1554       C  0.35644170  0.74258193  0.19324488    -0.07000
C1555       C  0.35668492  0.73528577  0.24187051     0.13900
C1556       C  0.37147145  0.72566375  0.25748199    -0.20500
C1557       C  0.38627680  0.72279443  0.22705942    -0.07000
C1558       C  0.38691780  0.73092158  0.18035782     0.13900
C1559       C  0.40325126  0.72950077  0.14783969    -0.23800
H1560       H  0.37288669  0.74641093  0.12786327     0.15200
H1561       H  0.37119742  0.71971396  0.29377064     0.15200
C1562       C  0.34154853  0.73709273  0.27867963    -0.23800
H1563       H  0.40189150  0.73734102  0.11359479     0.05400
H1564       H  0.40539379  0.71550554  0.13682013     0.08600
H1565       H  0.41516096  0.73456605  0.16804483     0.08600
H1566       H  0.32877430  0.73191345  0.26381619     0.08600
H1567       H  0.34041224  0.75107939  0.29026476     0.08600
H1568       H  0.34398838  0.72957715  0.31301138     0.05400
C1569       C  0.30670086  0.76157315  0.96521574    -0.20400
C1570       C  0.32025455  0.77183564  0.94320953    -0.07000
C1571       C  0.33211055  0.78136364  0.97440292     0.13900
C1572       C  0.33154562  0.77856194  0.02575491    -0.20500
C1573       C  0.31911773  0.76681001  0.04755583    -0.07000
C1574       C  0.30588094  0.75892257  0.01655437     0.13900
C1575       C  0.29152452  0.74661245  0.03556337    -0.23800
H1576       H  0.29728391  0.75453952  0.94186419     0.15200
H1577       H  0.34129945  0.78528747  0.04891690     0.15200
C1578       C  0.34552783  0.79456170  0.95470534    -0.23800
H1579       H  0.28346919  0.74063996  0.00524122     0.05400
H1580       H  0.28203271  0.75384550  0.05961341     0.08600
H1581       H  0.29772347  0.73560936  0.05534430     0.08600
H1582       H  0.34416444  0.79668166  0.91446423     0.08600
H1583       H  0.35928938  0.78997088  0.96238271     0.08600
H1584       H  0.34350550  0.80756270  0.97322974     0.05400
C1585       C  0.29235905  0.79447460  0.18647194    -0.20400
C1586       C  0.30222004  0.78238900  0.21377026    -0.07000
C1587       C  0.30074478  0.78294541  0.26597881     0.13900
C1588       C  0.29129660  0.79667887  0.28910400    -0.20500
C1589       C  0.28100415  0.80855158  0.26201254    -0.07000
C1590       C  0.28124524  0.80699911  0.20957134     0.13900
C1591       C  0.26929967  0.81761326  0.17700351    -0.23800
H1592       H  0.29309745  0.79393252  0.14652546     0.15200
H1593       H  0.29093034  0.79723141  0.32908430     0.15200
C1594       C  0.30698121  0.76822894  0.29840338    -0.23800
H1595       H  0.26937164  0.81261765  0.13831917     0.05400
H1596       H  0.27423170  0.83144953  0.17584371     0.08600
H1597       H  0.25529464  0.81673149  0.19049068     0.08600
H1598       H  0.31887348  0.77264273  0.31972390     0.08600
H1599       H  0.30983345  0.75610918  0.27685394     0.08600
H1600       H  0.29615623  0.76447286  0.32468273     0.05400
C1601       C  0.24922593  0.62860919  0.24638441    -0.20400
C1602       C  0.25390475  0.63698835  0.20164476    -0.07000
C1603       C  0.26840232  0.62969257  0.17366344     0.13900
C1604       C  0.27797124  0.61540576  0.19255097    -0.20500
C1605       C  0.27407561  0.60807315  0.23874528    -0.07000
C1606       C  0.25909695  0.61446761  0.26539027     0.13900
C1607       C  0.25368332  0.60705363  0.31486649    -0.23800
H1608       H  0.23841887  0.63348728  0.26881651     0.15200
H1609       H  0.28916979  0.61029722  0.17144152     0.15200
C1610       C  0.27468811  0.63688673  0.12435239    -0.23800
H1611       H  0.24151422  0.61349651  0.32999384     0.05400
H1612       H  0.26457503  0.60926016  0.34198894     0.08600
H1613       H  0.25068511  0.59268368  0.31112518     0.08600
H1614       H  0.27798680  0.65116128  0.12652382     0.08600
H1615       H  0.26455395  0.63439382  0.09549995     0.08600
H1616       H  0.28703462  0.63026579  0.11108799     0.05400
C1617       C  0.21850612  0.66702383  0.98482897    -0.20400
C1618       C  0.23112230  0.67827568  0.96210691    -0.07000
C1619       C  0.24212557  0.68910657  0.99272130     0.13900
C1620       C  0.24088644  0.68769387  0.04430994    -0.20500
C1621       C  0.22947988  0.67528064  0.06662214    -0.07000
C1622       C  0.21754843  0.66537098  0.03657812     0.13900
C1623       C  0.20369050  0.65316205  0.05880248    -0.23800
H1624       H  0.20997397  0.65877676  0.96176534     0.15200
H1625       H  0.24999042  0.69533997  0.06725502     0.15200
C1626       C  0.25649652  0.70090760  0.97196649    -0.23800
H1627       H  0.19471978  0.64742592  0.03016100     0.05400
H1628       H  0.19532689  0.66064749  0.08558753     0.08600
H1629       H  0.21007307  0.64198812  0.07784678     0.08600
H1630       H  0.25050795  0.71089959  0.94752382     0.08600
H1631       H  0.26622542  0.69257308  0.95180824     0.08600
H1632       H  0.26397600  0.70818416  0.00123935     0.05400
C1633       C  0.28173813  0.69720754  0.13622575    -0.20400
C1634       C  0.26685450  0.70048795  0.16641625    -0.07000
C1635       C  0.26494681  0.71725361  0.18929849     0.13900
C1636       C  0.27824321  0.73025910  0.18178195    -0.20500
C1637       C  0.29350282  0.72663181  0.15324112    -0.07000
C1638       C  0.29509395  0.70998133  0.12928734     0.13900
C1639       C  0.31055708  0.70513748  0.09586852    -0.23800
H1640       H  0.28302305  0.68442980  0.11805796     0.15200
H1641       H  0.27724445  0.74295611  0.20053107     0.15200
C1642       C  0.24971870  0.72108677  0.22430694    -0.23800
H1643       H  0.30533753  0.70083461  0.05933125     0.05400
H1644       H  0.31807504  0.69404958  0.11224493     0.08600
H1645       H  0.31998160  0.71626470  0.08910561     0.08600
H1646       H  0.24947309  0.71117313  0.25428123     0.08600
H1647       H  0.23680530  0.72071049  0.20447609     0.08600
H1648       H  0.25111625  0.73439389  0.24163219     0.05400
C1649       C  0.16382860  0.72273509  0.47550673    -0.20400
C1650       C  0.17632707  0.73360729  0.45067562    -0.07000
C1651       C  0.19022881  0.74166045  0.47880210     0.13900
C1652       C  0.19003390  0.74008801  0.53054825    -0.20500
C1653       C  0.17633377  0.73090830  0.55539247    -0.07000
C1654       C  0.16363769  0.72128158  0.52717619     0.13900
C1655       C  0.14958855  0.70950925  0.55032448    -0.23800
H1656       H  0.15354170  0.71587320  0.45448936     0.15200
H1657       H  0.20005991  0.74711626  0.55191652     0.15200
C1658       C  0.20472004  0.75291572  0.45592398    -0.23800
H1659       H  0.15062875  0.69594913  0.53450353     0.05400
H1660       H  0.13608627  0.71473499  0.54234415     0.08600
H1661       H  0.15111975  0.70838268  0.59084134     0.08600
H1662       H  0.19869088  0.76368938  0.43463880     0.08600
H1663       H  0.21345810  0.74469486  0.43211629     0.08600
H1664       H  0.21347508  0.75920593  0.48421344     0.05400
C1665       C  0.21400645  0.76907967  0.30685464    -0.20400
C1666       C  0.19864598  0.77221855  0.33541704    -0.07000
C1667       C  0.19644934  0.78892941  0.35867392     0.13900
C1668       C  0.20907235  0.80231877  0.35026186    -0.20500
C1669       C  0.22450129  0.79927116  0.32199163    -0.07000
C1670       C  0.22699369  0.78245888  0.29966671     0.13900
C1671       C  0.24256203  0.77890925  0.26559345    -0.23800
H1672       H  0.21549531  0.75633788  0.28863704     0.15200
H1673       H  0.20723831  0.81513000  0.36788157     0.15200
C1674       C  0.18133843  0.79302528  0.39406746    -0.23800
H1675       H  0.24142733  0.76566941  0.24774413     0.05400
H1676       H  0.25527971  0.77924200  0.28628477     0.08600
H1677       H  0.24300452  0.78896173  0.23596288     0.08600
H1678       H  0.17279901  0.78137983  0.40263696     0.08600
H1679       H  0.17283805  0.80354571  0.37849128     0.08600
H1680       H  0.18697234  0.79781081  0.42968331     0.05400
C1681       C  0.20077694  0.70373672  0.31165403    -0.20400
C1682       C  0.18893628  0.71431705  0.28511946    -0.07000
C1683       C  0.18889530  0.71277818  0.23275438     0.13900
C1684       C  0.19980612  0.70025549  0.20923021    -0.20500
C1685       C  0.21172498  0.68983474  0.23556281    -0.07000
C1686       C  0.21245237  0.69185815  0.28776086     0.13900
C1687       C  0.22616799  0.68260169  0.31870805    -0.23800
H1688       H  0.20118651  0.70503339  0.35149472     0.15200
H1689       H  0.19940716  0.69898026  0.16936813     0.15200
C1690       C  0.17858352  0.72505133  0.20035798    -0.23800
H1691       H  0.22636691  0.68782330  0.35715220     0.05400
H1692       H  0.23975985  0.68462210  0.30290501     0.08600
H1693       H  0.22300379  0.66829138  0.32114428     0.08600
H1694       H  0.18136254  0.73898367  0.21140691     0.08600
H1695       H  0.16416544  0.72180685  0.20247101     0.08600
H1696       H  0.18247238  0.72368031  0.16089072     0.05400
C1697       C  0.25695495  0.36559261  0.77197651    -0.20400
C1698       C  0.26317997  0.35662263  0.81400661    -0.07000
C1699       C  0.27779833  0.36453022  0.84041005     0.13900
C1700       C  0.28580237  0.38014008  0.82305127    -0.20500
C1701       C  0.28056765  0.38798907  0.77891956    -0.07000
C1702       C  0.26553650  0.38090617  0.75379799     0.13900
C1703       C  0.25833920  0.38933216  0.70778544    -0.23800
H1704       H  0.24571304  0.36055349  0.75145718     0.15200
H1705       H  0.29714302  0.38561940  0.84302902     0.15200
C1706       C  0.28621442  0.35701660  0.88628444    -0.23800
H1707       H  0.24576784  0.38281385  0.69515696     0.05400
H1708       H  0.26818667  0.38818676  0.67717930     0.08600
H1709       H  0.25538819  0.40348690  0.71519507     0.08600
H1710       H  0.28091565  0.34409238  0.89789935     0.08600
H1711       H  0.28443596  0.36646040  0.91752770     0.08600
H1712       H  0.30076675  0.35519474  0.87979252     0.05400
C1713       C  0.21257575  0.27843650  0.73240632    -0.20400
C1714       C  0.19625232  0.28610532  0.72044705    -0.07000
C1715       C  0.19154633  0.30241410  0.74285915     0.13900
C1716       C  0.20366581  0.31080986  0.77535606    -0.20500
C1717       C  0.22031687  0.30332171  0.78639939    -0.07000
C1718       C  0.22461032  0.28666856  0.76493867     0.13900
C1719       C  0.24216401  0.27770261  0.77319215    -0.23800
H1720       H  0.21603781  0.26584287  0.71575335     0.15200
H1721       H  0.20026218  0.32355752  0.79132210     0.15200
C1722       C  0.17427009  0.31168071  0.73203729    -0.23800
H1723       H  0.24334815  0.26518757  0.75163149     0.05400
H1724       H  0.24365059  0.27422163  0.81252237     0.08600
H1725       H  0.25305809  0.28656297  0.76077631     0.08600
H1726       H  0.16629114  0.31293467  0.76655186     0.08600
H1727       H  0.16600770  0.30467152  0.70410945     0.08600
H1728       H  0.17723807  0.32512695  0.71771401     0.05400
C1729       C  0.37122073  0.27094035  0.86360044    -0.20400
C1730       C  0.36689541  0.25558218  0.83580567    -0.07000
C1731       C  0.37859586  0.25095710  0.79631002     0.13900
C1732       C  0.39157881  0.26331915  0.78043199    -0.20500
C1733       C  0.39419189  0.27965961  0.80466204    -0.07000
C1734       C  0.38449184  0.28302293  0.84868144     0.13900
C1735       C  0.38729767  0.29958777  0.87930896    -0.23800
H1736       H  0.36323326  0.27412099  0.89594911     0.15200
H1737       H  0.39979332  0.26011129  0.74855321     0.15200
C1738       C  0.37894008  0.23292858  0.77240845    -0.23800
H1739       H  0.37839617  0.29991072  0.91226289     0.05400
H1740       H  0.38433953  0.31146195  0.85703710     0.08600
H1741       H  0.40130281  0.30022022  0.89268984     0.08600
H1742       H  0.37057779  0.23279066  0.73868645     0.08600
H1743       H  0.37476310  0.22251755  0.79883090     0.08600
H1744       H  0.39279037  0.22952662  0.76095740     0.05400
C1745       C  0.30070642  0.27498963  0.81225966    -0.20400
C1746       C  0.30145350  0.26561018  0.85681069    -0.07000
C1747       C  0.28763414  0.26803102  0.89206280     0.13900
C1748       C  0.27473912  0.28102804  0.88375982    -0.20500
C1749       C  0.27551993  0.29197891  0.84217255    -0.07000
C1750       C  0.28801677  0.28807086  0.80429712     0.13900
C1751       C  0.28831049  0.29687967  0.75446771    -0.23800
H1752       H  0.31042714  0.27230443  0.78335561     0.15200
H1753       H  0.26453026  0.28326190  0.91150900     0.15200
C1754       C  0.28664936  0.25791746  0.93961055    -0.23800
H1755       H  0.28742484  0.28657611  0.72505855     0.05400
H1756       H  0.30104976  0.30437503  0.74978798     0.08600
H1757       H  0.27702525  0.30595132  0.74851820     0.08600
H1758       H  0.29928081  0.25957693  0.96002625     0.08600
H1759       H  0.28375762  0.24375495  0.93225528     0.08600
H1760       H  0.27575872  0.26278640  0.96408796     0.05400
C1761       C  0.23644655  0.22412557  0.62830292    -0.20400
C1762       C  0.23476928  0.21169638  0.66597657    -0.07000
C1763       C  0.22095147  0.21411406  0.70145460     0.13900
C1764       C  0.20780121  0.22685630  0.69324357    -0.20500
C1765       C  0.20794238  0.23757809  0.65095678    -0.07000
C1766       C  0.22298662  0.23645677  0.61904118     0.13900
C1767       C  0.22476383  0.24720192  0.57339997    -0.23800
H1768       H  0.24805272  0.22387404  0.60443710     0.15200
H1769       H  0.19718463  0.22833678  0.72037095     0.15200
C1770       C  0.21999946  0.20428248  0.74965307    -0.23800
H1771       H  0.23643756  0.24324439  0.55042181     0.05400
H1772       H  0.22705829  0.26119732  0.58409209     0.08600
H1773       H  0.21264476  0.24503675  0.55063301     0.08600
H1774       H  0.23204405  0.19633257  0.75693086     0.08600
H1775       H  0.20797745  0.19553092  0.75010744     0.08600
H1776       H  0.21896378  0.21395316  0.78062308     0.05400
C1777       C  0.30454432  0.19070692  0.74545157    -0.20400
C1778       C  0.28899978  0.19930674  0.72934568    -0.07000
C1779       C  0.28513950  0.21629095  0.74928816     0.13900
C1780       C  0.29685363  0.22409214  0.78367950    -0.20500
C1781       C  0.31234339  0.21556748  0.79937976    -0.07000
C1782       C  0.31620682  0.19859180  0.78017837     0.13900
C1783       C  0.33220586  0.18849738  0.79772530    -0.23800
H1784       H  0.30742508  0.17757217  0.73129883     0.15200
H1785       H  0.29384719  0.23706693  0.79835083     0.15200
C1786       C  0.26831274  0.22608077  0.73724136    -0.23800
H1787       H  0.33282893  0.17510160  0.78062344     0.05400
H1788       H  0.33143986  0.18692057  0.83839946     0.08600
H1789       H  0.34472854  0.19568242  0.78802506     0.08600
H1790       H  0.25657336  0.21780330  0.74713961     0.08600
H1791       H  0.26809995  0.22959312  0.69770446     0.08600
H1792       H  0.26720459  0.23867528  0.75846750     0.05400
C1793       C  0.25112653  0.37841830  0.22660176    -0.20400
C1794       C  0.25585060  0.36993341  0.18183342    -0.07000
C1795       C  0.27012479  0.37758585  0.15370665     0.13900
C1796       C  0.28092383  0.39082930  0.17498774    -0.20500
C1797       C  0.27784425  0.39714988  0.22295596    -0.07000
C1798       C  0.26190074  0.39188860  0.24746749     0.13900
C1799       C  0.25621955  0.40006839  0.29597728    -0.23800
H1800       H  0.23983333  0.37382648  0.24792478     0.15200
H1801       H  0.29252661  0.39558508  0.15473925     0.15200
C1802       C  0.27493066  0.37148465  0.10207902    -0.23800
H1803       H  0.24271418  0.39538705  0.30756266     0.05400
H1804       H  0.25571578  0.41468917  0.29242921     0.08600
H1805       H  0.26566134  0.39646250  0.32558520     0.08600
H1806       H  0.26406583  0.37488944  0.07630405     0.08600
H1807       H  0.27742826  0.35710024  0.10065959     0.08600
H1808       H  0.28723795  0.37813538  0.08804425     0.05400
C1809       C  0.25393867  0.31656192  0.03570633    -0.20400
C1810       C  0.23830519  0.32302137  0.05715569    -0.07000
C1811       C  0.22337056  0.32633070  0.02714892     0.13900
C1812       C  0.22490718  0.32411308  0.97558338    -0.20500
C1813       C  0.24131481  0.31953195  0.95355634    -0.07000
C1814       C  0.25611850  0.31592726  0.98450602     0.13900
C1815       C  0.27497005  0.31331724  0.96629078    -0.23800
H1816       H  0.26528688  0.31388957  0.05900030     0.15200
H1817       H  0.21366603  0.32720984  0.95218202     0.15200
C1818       C  0.20603737  0.33249790  0.04955257    -0.23800
H1819       H  0.27977276  0.30008709  0.97744762     0.05400
H1820       H  0.28386438  0.32355545  0.98309249     0.08600
H1821       H  0.27636090  0.31462287  0.92618824     0.08600
H1822       H  0.20809588  0.34537110  0.06883343     0.08600
H1823       H  0.20109807  0.32256274  0.07648481     0.08600
H1824       H  0.19559038  0.33425336  0.02106174     0.05400
C1825       C  0.16577913  0.28770886  0.46751130    -0.20400
C1826       C  0.17947858  0.27873389  0.44161231    -0.07000
C1827       C  0.19493453  0.27404390  0.46876630     0.13900
C1828       C  0.19477671  0.27607675  0.52034922    -0.20500
C1829       C  0.17932510  0.28060680  0.54626986    -0.07000
C1830       C  0.16550198  0.28868217  0.51936692     0.13900
C1831       C  0.15054831  0.29864572  0.54418147    -0.23800
H1832       H  0.15466245  0.29321148  0.44745534     0.15200
H1833       H  0.20647880  0.27311842  0.54066728     0.15200
C1834       C  0.21133125  0.26590348  0.44582112    -0.23800
H1835       H  0.15023796  0.31235849  0.52978674     0.05400
H1836       H  0.15234858  0.29964970  0.58473643     0.08600
H1837       H  0.13754188  0.29203093  0.53617119     0.08600
H1838       H  0.21842125  0.27577732  0.42267745     0.08600
H1839       H  0.20763005  0.25384330  0.42459657     0.08600
H1840       H  0.22113181  0.26176530  0.47397969     0.05400
C1841       C  0.20531087  0.30342333  0.29950884    -0.20400
C1842       C  0.19362959  0.29217802  0.27328125    -0.07000
C1843       C  0.19499672  0.29144010  0.22096213     0.13900
C1844       C  0.20729585  0.30261014  0.19680832    -0.20500
C1845       C  0.21885386  0.31386017  0.22323569    -0.07000
C1846       C  0.21829444  0.31376473  0.27544226     0.13900
C1847       C  0.23215329  0.32333386  0.30630435    -0.23800
H1848       H  0.20465712  0.30375150  0.33947159     0.15200
H1849       H  0.20809283  0.30235575  0.15684645     0.15200
C1850       C  0.18458968  0.27823829  0.19006346    -0.23800
H1851       H  0.23110086  0.31966466  0.34583361     0.05400
H1852       H  0.23040935  0.33783927  0.30444044     0.08600
H1853       H  0.24578295  0.31977303  0.29333028     0.08600
H1854       H  0.17029489  0.28186820  0.18872306     0.08600
H1855       H  0.18605355  0.26471010  0.20511389     0.08600
H1856       H  0.18947227  0.27790816  0.15127170     0.05400
C1857       C  0.38123994  0.26781567  0.19057515    -0.20400
C1858       C  0.36634914  0.26484718  0.22207582    -0.07000
C1859       C  0.36762443  0.27142884  0.27151894     0.13900
C1860       C  0.38261695  0.28140200  0.28607284    -0.20500
C1861       C  0.39662180  0.28540680  0.25344332    -0.07000
C1862       C  0.39615637  0.27806346  0.20532377     0.13900
C1863       C  0.41116814  0.28106837  0.16883653    -0.23800
H1864       H  0.38123539  0.26307281  0.15309936     0.15200
H1865       H  0.38308098  0.28665948  0.32339610     0.15200
C1866       C  0.35333234  0.26844643  0.31014060    -0.23800
H1867       H  0.40903021  0.27357073  0.13388751     0.05400
H1868       H  0.42400000  0.27664176  0.18482640     0.08600
H1869       H  0.41210843  0.29530385  0.15930544     0.08600
H1870       H  0.35308057  0.25433996  0.32027115     0.08600
H1871       H  0.34008529  0.27280645  0.29725257     0.08600
H1872       H  0.35609379  0.27591339  0.34480634     0.05400
C1873       C  0.33146349  0.25386189  0.99234190    -0.20400
C1874       C  0.32928382  0.23665209  0.97348446    -0.07000
C1875       C  0.32569183  0.22267238  0.00644866     0.13900
C1876       C  0.32532843  0.22615166  0.05791476    -0.20500
C1877       C  0.32826406  0.24338178  0.07659249    -0.07000
C1878       C  0.33064594  0.25743485  0.04298463     0.13900
C1879       C  0.33192626  0.27638023  0.06012821    -0.23800
H1880       H  0.33389743  0.26464432  0.96691563     0.15200
H1881       H  0.32346310  0.21535315  0.08356051     0.15200
C1882       C  0.32295531  0.20411628  0.98727768    -0.23800
H1883       H  0.33385765  0.28565236  0.02891306     0.05400
H1884       H  0.34327486  0.27836979  0.08582714     0.08600
H1885       H  0.31917016  0.27978044  0.07847660     0.08600
H1886       H  0.33506747  0.19978121  0.96677701     0.08600
H1887       H  0.31130649  0.20370684  0.96201362     0.08600
H1888       H  0.32037911  0.19466017  0.01771971     0.05400
C1889       C  0.30738896  0.29729656  0.15775657    -0.20400
C1890       C  0.30338274  0.28136967  0.18176462    -0.07000
C1891       C  0.28605468  0.27877620  0.20188112     0.13900
C1892       C  0.27313867  0.29202157  0.19616405    -0.20500
C1893       C  0.27708150  0.30776862  0.17098187    -0.07000
C1894       C  0.29446021  0.31028478  0.15072931     0.13900
C1895       C  0.29957174  0.32611564  0.11981727    -0.23800
H1896       H  0.32080711  0.29952863  0.14365296     0.15200
H1897       H  0.25993857  0.29020537  0.21223081     0.15200
C1898       C  0.28134574  0.26269270  0.23197937    -0.23800
H1899       H  0.31286462  0.32443156  0.10195677     0.05400
H1900       H  0.30054426  0.33824644  0.14280641     0.08600
H1901       H  0.28975747  0.32795307  0.08991581     0.08600
H1902       H  0.29126947  0.26105649  0.26187536     0.08600
H1903       H  0.28096172  0.25068563  0.20833486     0.08600
H1904       H  0.26796010  0.26391303  0.24951350     0.05400
C1905       C  0.28025302  0.17560457  0.47298057    -0.20400
C1906       C  0.26674549  0.18570752  0.45091281    -0.07000
C1907       C  0.25601726  0.19644432  0.48204689     0.13900
C1908       C  0.25765100  0.19521737  0.53351908    -0.20500
C1909       C  0.27058092  0.18472727  0.55576501    -0.07000
C1910       C  0.28251600  0.17525373  0.52478969     0.13900
C1911       C  0.29752089  0.16465900  0.54623474    -0.23800
H1912       H  0.28873342  0.16751067  0.44958487     0.15200
H1913       H  0.24763618  0.20133949  0.55643643     0.15200
C1914       C  0.24179735  0.20825882  0.46210200    -0.23800
H1915       H  0.30598449  0.15864550  0.51687677     0.05400
H1916       H  0.29217742  0.15377773  0.56936030     0.08600
H1917       H  0.30615397  0.17344825  0.56919495     0.08600
H1918       H  0.23218105  0.20011778  0.44116666     0.08600
H1919       H  0.24784181  0.21858477  0.43831289     0.08600
H1920       H  0.23426546  0.21515998  0.49189510     0.05400
C1921       C  0.23176759  0.22490281  0.31597013    -0.20400
C1922       C  0.22740696  0.20891406  0.33950063    -0.07000
C1923       C  0.21025736  0.20691059  0.36155572     0.13900
C1924       C  0.19816701  0.22088171  0.35955097    -0.20500
C1925       C  0.20230672  0.23674915  0.33532227    -0.07000
C1926       C  0.21934428  0.23876410  0.31284168     0.13900
C1927       C  0.22418648  0.25484731  0.28290165    -0.23800
H1928       H  0.24478434  0.22631167  0.29849673     0.15200
H1929       H  0.18519240  0.21930098  0.37715277     0.15200
C1930       C  0.20407086  0.19051221  0.38854351    -0.23800
H1931       H  0.23712962  0.25314117  0.26326676     0.05400
H1932       H  0.22561154  0.26666002  0.30703240     0.08600
H1933       H  0.21379126  0.25713639  0.25466174     0.08600
H1934       H  0.21454371  0.18041768  0.39270269     0.08600
H1935       H  0.19258163  0.18439347  0.36871783     0.08600
H1936       H  0.19962017  0.19423520  0.42638372     0.05400
C1937       C  0.29887961  0.21489589  0.21339844    -0.20400
C1938       C  0.31046044  0.22538314  0.24196723    -0.07000
C1939       C  0.30878095  0.22459060  0.29433605     0.13900
C1940       C  0.29642541  0.21276079  0.31585013    -0.20500
C1941       C  0.28507991  0.20211984  0.28712536    -0.07000
C1942       C  0.28592224  0.20378824  0.23496513     0.13900
C1943       C  0.27263876  0.19489516  0.20126367    -0.23800
H1944       H  0.29974667  0.21556378  0.17352889     0.15200
H1945       H  0.29553687  0.21190373  0.35570827     0.15200
C1946       C  0.31909874  0.23659302  0.32857842    -0.23800
H1947       H  0.27349473  0.20010525  0.16309411     0.05400
H1948       H  0.25883009  0.19725482  0.21489499     0.08600
H1949       H  0.27554829  0.18063779  0.19873596     0.08600
H1950       H  0.31820742  0.25048640  0.31606302     0.08600
H1951       H  0.33310616  0.23212286  0.33063728     0.08600
H1952       H  0.31370390  0.23618901  0.36684180     0.05400
C1953       C  0.13314031  0.75348937  0.73666371    -0.20400
C1954       C  0.14301375  0.75918456  0.69507574    -0.07000
C1955       C  0.13666863  0.77428149  0.66929014     0.13900
C1956       C  0.12257778  0.78412606  0.68926360    -0.20500
C1957       C  0.11431697  0.77958876  0.73397893    -0.07000
C1958       C  0.11907321  0.76351742  0.75669071     0.13900
C1959       C  0.10944428  0.75667763  0.80184780    -0.23800
H1960       H  0.13629100  0.74122316  0.75447062     0.15200
H1961       H  0.11854235  0.79602251  0.67034252     0.15200
C1962       C  0.14439112  0.78113477  0.62124703    -0.23800
H1963       H  0.11411484  0.74332239  0.81235256     0.05400
H1964       H  0.09486763  0.75566846  0.79448867     0.08600
H1965       H  0.11192021  0.76561742  0.83382903     0.08600
H1966       H  0.15555719  0.77343455  0.60574829     0.08600
H1967       H  0.14934112  0.79491808  0.62676966     0.08600
H1968       H  0.13371657  0.78119619  0.59289426     0.05400
C1969       C  0.99524900  0.80530606  0.76097824    -0.20400
C1970       C  0.98701868  0.82174051  0.75408233    -0.07000
C1971       C  0.99796732  0.83665052  0.74296692     0.13900
C1972       C  0.01667220  0.83501683  0.74440973    -0.20500
C1973       C  0.02484709  0.81895821  0.75656320    -0.07000
C1974       C  0.01391493  0.80365438  0.76229535     0.13900
C1975       C  0.02153709  0.78557088  0.77152123    -0.23800
H1976       H  0.98700889  0.79368581  0.76773189     0.15200
H1977       H  0.02495276  0.84665046  0.73816050     0.15200
C1978       C  0.99028569  0.85446785  0.73089377    -0.23800
H1979       H  0.01093809  0.77517766  0.77317399     0.05400
H1980       H  0.02862604  0.78547833  0.80740041     0.08600
H1981       H  0.03083721  0.78191750  0.74109421     0.08600
H1982       H  0.98291896  0.85985079  0.76326303     0.08600
H1983       H  0.98119261  0.85317846  0.69876335     0.08600
H1984       H  0.00088885  0.86425745  0.72113672     0.05400
C1985       C  0.13743466  0.23208769  0.64535717    -0.20400
C1986       C  0.14198878  0.24779170  0.67116777    -0.07000
C1987       C  0.12959532  0.25407718  0.70702446     0.13900
C1988       C  0.11604712  0.24264685  0.72412814    -0.20500
C1989       C  0.11317670  0.22584311  0.70291327    -0.07000
C1990       C  0.12334885  0.22097939  0.66082225     0.13900
C1991       C  0.12020040  0.20378592  0.63339888    -0.23800
H1992       H  0.14566154  0.22793187  0.61439364     0.15200
H1993       H  0.10738140  0.24709457  0.75387730     0.15200
C1994       C  0.12886595  0.27302142  0.72467668    -0.23800
H1995       H  0.12960211  0.20217303  0.60182449     0.05400
H1996       H  0.10641040  0.20342508  0.61839190     0.08600
H1997       H  0.12215406  0.19244805  0.65853909     0.08600
H1998       H  0.13701815  0.28203742  0.70144933     0.08600
H1999       H  0.13303373  0.27394745  0.76389738     0.08600
H2000       H  0.11492715  0.27786750  0.72191577     0.05400
C2001       C  0.85774372  0.23354676  0.72045532    -0.20400
C2002       C  0.86384593  0.24879311  0.69621920    -0.07000
C2003       C  0.88241272  0.25271119  0.69549169     0.13900
C2004       C  0.89442754  0.24055989  0.71551903    -0.20500
C2005       C  0.88834263  0.22503075  0.73852464    -0.07000
C2006       C  0.86969057  0.22165042  0.74174910     0.13900
C2007       C  0.86223857  0.20507659  0.76512547    -0.23800
H2008       H  0.84354847  0.23051703  0.72104990     0.15200
H2009       H  0.90866532  0.24340571  0.71391358     0.15200
C2010       C  0.88998093  0.26976057  0.67527632    -0.23800
H2011       H  0.84745637  0.20414476  0.76162639     0.05400
H2012       H  0.86540216  0.20500351  0.80508053     0.08600
H2013       H  0.86803646  0.19323311  0.74683806     0.08600
H2014       H  0.87951437  0.27926680  0.66469443     0.08600
H2015       H  0.89849810  0.26688118  0.64255122     0.08600
H2016       H  0.89829072  0.27640277  0.70395168     0.05400
C2017       C  0.99246855  0.20504155  0.76128672    -0.20400
C2018       C  0.98310529  0.18900545  0.75448061    -0.07000
C2019       C  0.99298369  0.17349717  0.74374468     0.13900
C2020       C  0.01180098  0.17434020  0.74262000    -0.20500
C2021       C  0.02123555  0.19021148  0.75186097    -0.07000
C2022       C  0.01127797  0.20592713  0.76001865     0.13900
C2023       C  0.02013552  0.22369548  0.76891146    -0.23800
H2024       H  0.98499038  0.21697806  0.76901057     0.15200
H2025       H  0.01921424  0.16229507  0.73593840     0.15200
C2026       C  0.98396799  0.15577770  0.73558797    -0.23800
H2027       H  0.01020203  0.23442639  0.77358462     0.05400
H2028       H  0.02876691  0.22718779  0.73690165     0.08600
H2029       H  0.02820395  0.22335873  0.80316077     0.08600
H2030       H  0.97515473  0.15634941  0.70280880     0.08600
H2031       H  0.97599793  0.15210852  0.76871983     0.08600
H2032       H  0.99380120  0.14509368  0.72879285     0.05400
C2033       C  0.22259854  0.12470907  0.67987971    -0.20400
C2034       C  0.22684479  0.11665980  0.72463477    -0.07000
C2035       C  0.24201984  0.12292824  0.75084724     0.13900
C2036       C  0.25165253  0.13767660  0.73316582    -0.20500
C2037       C  0.24637683  0.14695318  0.69070308    -0.07000
C2038       C  0.23183773  0.13969719  0.66270111     0.13900
C2039       C  0.22478625  0.14738208  0.61525047    -0.23800
H2040       H  0.21126294  0.11979538  0.65882398     0.15200
H2041       H  0.26301878  0.14200995  0.75432977     0.15200
C2042       C  0.24818966  0.11442129  0.79793080    -0.23800
H2043       H  0.22624167  0.13747007  0.58502342     0.05400
H2044       H  0.23133163  0.15971198  0.60299502     0.08600
H2045       H  0.21036131  0.15040332  0.61986924     0.08600
H2046       H  0.25064585  0.10012150  0.79134897     0.08600
H2047       H  0.23797849  0.11616032  0.82741205     0.08600
H2048       H  0.26084036  0.12044196  0.81175904     0.05400
C2049       C  0.13817410  0.12523267  0.81991195    -0.20400
C2050       C  0.14217822  0.11616621  0.77576947    -0.07000
C2051       C  0.13259516  0.12057080  0.73260961     0.13900
C2052       C  0.11964235  0.13404366  0.73488163    -0.20500
C2053       C  0.11615067  0.14349293  0.77884651    -0.07000
C2054       C  0.12555514  0.13880740  0.82212611     0.13900
C2055       C  0.12249523  0.14785624  0.87133824    -0.23800
H2056       H  0.14524922  0.12190581  0.85332770     0.15200
H2057       H  0.11251753  0.13752858  0.70167926     0.15200
C2058       C  0.13610570  0.11150067  0.68384152    -0.23800
H2059       H  0.13027802  0.14168862  0.90135728     0.05400
H2060       H  0.10813014  0.14694351  0.88174461     0.08600
H2061       H  0.12683496  0.16192701  0.86947618     0.08600
H2062       H  0.13324817  0.09710491  0.68699337     0.08600
H2063       H  0.15025783  0.11365596  0.67257190     0.08600
H2064       H  0.12750676  0.11673046  0.65412522     0.05400
C2065       C  0.24087829  0.88945625  0.71348803    -0.20400
C2066       C  0.22269735  0.89175462  0.70290616    -0.07000
C2067       C  0.21412175  0.87960573  0.67059374     0.13900
C2068       C  0.22346950  0.86473738  0.65363115    -0.20500
C2069       C  0.24111063  0.86122602  0.66874205    -0.07000
C2070       C  0.25046398  0.87498449  0.69423067     0.13900
C2071       C  0.27053436  0.87569458  0.69889946    -0.23800
H2072       H  0.24780113  0.89931686  0.73580066     0.15200
H2073       H  0.21668771  0.85560446  0.62888384     0.15200
C2074       C  0.19482024  0.88161176  0.65568900    -0.23800
H2075       H  0.27553188  0.88892374  0.68727971     0.05400
H2076       H  0.27731386  0.86604062  0.67443487     0.08600
H2077       H  0.27442431  0.87356383  0.73786408     0.08600
H2078       H  0.19320623  0.89399830  0.63450885     0.08600
H2079       H  0.18610577  0.88190811  0.68901112     0.08600
H2080       H  0.19015645  0.87047732  0.63183763     0.05400
C2081       C  0.13634411  0.88594091  0.73790388    -0.20400
C2082       C  0.14218872  0.89386414  0.78204113    -0.07000
C2083       C  0.13378113  0.88915906  0.82698950     0.13900
C2084       C  0.12044538  0.87601134  0.82689148    -0.20500
C2085       C  0.11541838  0.86707551  0.78332640    -0.07000
C2086       C  0.12320202  0.87246238  0.73788150     0.13900
C2087       C  0.11836144  0.86375322  0.68944684    -0.23800
H2088       H  0.14273349  0.88970819  0.70349561     0.15200
H2089       H  0.11428612  0.87232018  0.86166367     0.15200
C2090       C  0.13865857  0.89799361  0.87533665    -0.23800
H2091       H  0.12589750  0.86962673  0.65805605     0.05400
H2092       H  0.10389070  0.86547850  0.68210447     0.08600
H2093       H  0.12158032  0.84944571  0.69050524     0.08600
H2094       H  0.13744879  0.91257086  0.87202211     0.08600
H2095       H  0.15252320  0.89460396  0.88581973     0.08600
H2096       H  0.12973231  0.89364201  0.90590862     0.05400
C2097       C  0.20409120  0.99467415  0.74232844    -0.20400
C2098       C  0.18772132  0.98536955  0.74329266    -0.07000
C2099       C  0.17164269  0.99516842  0.74103673     0.13900
C2100       C  0.17247557  0.01379793  0.74079811    -0.20500
C2101       C  0.18882923  0.02311425  0.74415419    -0.07000
C2102       C  0.20492541  0.01327642  0.74341299     0.13900
C2103       C  0.22312918  0.02201855  0.74595409    -0.23800
H2104       H  0.21645624  0.98731744  0.74316662     0.15200
H2105       H  0.16010053  0.02114456  0.74055694     0.15200
C2106       C  0.15346387  0.98632747  0.74137474    -0.23800
H2107       H  0.23409526  0.01221403  0.74413929     0.05400
H2108       H  0.22456501  0.02937870  0.78136767     0.08600
H2109       H  0.22494649  0.03114787  0.71439778     0.08600
H2110       H  0.15158409  0.97876556  0.77600458     0.08600
H2111       H  0.15216282  0.97733255  0.70895560     0.08600
H2112       H  0.14248197  0.99609214  0.73945357     0.05400
C2113       C  0.76641513  0.13226543  0.69547870    -0.20400
C2114       C  0.76497538  0.14746356  0.72608371    -0.07000
C2115       C  0.77158176  0.14616647  0.77529674     0.13900
C2116       C  0.78085764  0.13104512  0.78956192    -0.20500
C2117       C  0.78387879  0.11683022  0.75715814    -0.07000
C2118       C  0.77588360  0.11716467  0.70999472     0.13900
C2119       C  0.77749310  0.10190492  0.67404722    -0.23800
H2120       H  0.76088136  0.13203434  0.65898891     0.15200
H2121       H  0.78633048  0.13061602  0.82648304     0.15200
C2122       C  0.76941651  0.16053820  0.81392974    -0.23800
H2123       H  0.76984666  0.10417162  0.63967584     0.05400
H2124       H  0.77214469  0.08961977  0.69110815     0.08600
H2125       H  0.79170656  0.10009502  0.66328206     0.08600
H2126       H  0.75510442  0.16214438  0.82312578     0.08600
H2127       H  0.77547745  0.17317222  0.80173554     0.08600
H2128       H  0.77609290  0.15720517  0.84912484     0.05400
C2129       C  0.89802442  0.12321302  0.79863401    -0.20400
C2130       C  0.89549507  0.13714712  0.76539399    -0.07000
C2131       C  0.88087818  0.13613011  0.73225529     0.13900
C2132       C  0.86842972  0.12212399  0.73656314    -0.20500
C2133       C  0.87006878  0.10929040  0.77338165    -0.07000
C2134       C  0.88552266  0.10936803  0.80321950     0.13900
C2135       C  0.88895107  0.09498011  0.84018200    -0.23800
H2136       H  0.90947467  0.12356371  0.82301771     0.15200
H2137       H  0.85670787  0.12187233  0.71316470     0.15200
C2138       C  0.87767848  0.15009987  0.69402270    -0.23800
H2139       H  0.90241947  0.09636800  0.85698462     0.05400
H2140       H  0.88820833  0.08183285  0.82161711     0.08600
H2141       H  0.87903092  0.09556622  0.87070343     0.08600
H2142       H  0.88932065  0.15089305  0.66850368     0.08600
H2143       H  0.87558472  0.16312130  0.71227688     0.08600
H2144       H  0.86562739  0.14707774  0.67153395     0.05400
C2145       C  0.87160647  0.88623234  0.74337802    -0.20400
C2146       C  0.87298469  0.89956107  0.77973461    -0.07000
C2147       C  0.88864769  0.90052942  0.80897177     0.13900
C2148       C  0.90156487  0.88727240  0.80421567    -0.20500
C2149       C  0.89927096  0.87295599  0.77149898    -0.07000
C2150       C  0.88442947  0.87279037  0.73920921     0.13900
C2151       C  0.88125446  0.85786594  0.70288190    -0.23800
H2152       H  0.85976972  0.88555659  0.72047948     0.15200
H2153       H  0.91314465  0.88760422  0.82815086     0.15200
C2154       C  0.89183979  0.91525072  0.84594977    -0.23800
H2155       H  0.86873331  0.85967283  0.68169829     0.05400
H2156       H  0.88008586  0.84510215  0.72273869     0.08600
H2157       H  0.89249294  0.85725839  0.67600242     0.08600
H2158       H  0.88220082  0.91421238  0.87706593     0.08600
H2159       H  0.89050510  0.92826824  0.82768527     0.08600
H2160       H  0.90546866  0.91467631  0.86197198     0.05400
C2161       C  0.80442454  0.99276443  0.79492531    -0.20400
C2162       C  0.81930223  0.98402585  0.77470524    -0.07000
C2163       C  0.83261826  0.99421207  0.75017285     0.13900
C2164       C  0.83137256  0.01278722  0.75040406    -0.20500
C2165       C  0.81725587  0.02155918  0.77450120    -0.07000
C2166       C  0.80325623  0.01128251  0.79567035     0.13900
C2167       C  0.78743917  0.01951081  0.82162098    -0.23800
H2168       H  0.79398874  0.98509402  0.81293839     0.15200
H2169       H  0.84191002  0.02054703  0.73312440     0.15200
C2170       C  0.84825912  0.98580114  0.72399383    -0.23800
H2171       H  0.77797426  0.00936745  0.83615223     0.05400
H2172       H  0.77992139  0.02782449  0.79545125     0.08600
H2173       H  0.79206936  0.02764340  0.85349443     0.08600
H2174       H  0.84333385  0.97602416  0.69627634     0.08600
H2175       H  0.85702237  0.97919611  0.75096947     0.08600
H2176       H  0.85660089  0.99575469  0.70425022     0.05400
C2177       C  0.78162888  0.12915116  0.26237731    -0.20400
C2178       C  0.78356689  0.11411462  0.29169416    -0.07000
C2179       C  0.77505744  0.11385684  0.33848204     0.13900
C2180       C  0.76568077  0.12888690  0.35523665    -0.20500
C2181       C  0.76491534  0.14465663  0.32757569    -0.07000
C2182       C  0.77267130  0.14431995  0.27910976     0.13900
C2183       C  0.77221603  0.15976352  0.24380222    -0.23800
H2184       H  0.78779442  0.12932996  0.22609935     0.15200
H2185       H  0.75933410  0.12807002  0.39085811     0.15200
C2186       C  0.77585925  0.09792720  0.37154339    -0.23800
H2187       H  0.77897894  0.15665265  0.20822275     0.05400
H2188       H  0.77936592  0.17143737  0.25892332     0.08600
H2189       H  0.75834106  0.16315875  0.23413837     0.08600
H2190       H  0.78989059  0.09554438  0.38268450     0.08600
H2191       H  0.77039414  0.08611141  0.35192968     0.08600
H2192       H  0.76790175  0.09978632  0.40589592     0.05400
C2193       C  0.83408528  0.06586033  0.99379882    -0.20400
C2194       C  0.81978582  0.07396748  0.96955665    -0.07000
C2195       C  0.80541032  0.08066386  0.99832149     0.13900
C2196       C  0.80597426  0.07933462  0.04994207    -0.20500
C2197       C  0.82040713  0.07150827  0.07425824    -0.07000
C2198       C  0.83460431  0.06444459  0.04542819     0.13900
C2199       C  0.85041927  0.05536035  0.06810018    -0.23800
H2200       H  0.84507414  0.06058332  0.97217517     0.15200
H2201       H  0.79503481  0.08470870  0.07155934     0.15200
C2202       C  0.78940506  0.08939131  0.97559190    -0.23800
H2203       H  0.85989517  0.05034039  0.03965740     0.05400
H2204       H  0.84575451  0.04383003  0.08999734     0.08600
H2205       H  0.85795583  0.06480523  0.09195890     0.08600
H2206       H  0.78240369  0.07990058  0.95065194     0.08600
H2207       H  0.79373500  0.10130844  0.95482975     0.08600
H2208       H  0.77956279  0.09375786  0.00391942     0.05400
C2209       C  0.83333243  0.94104083  0.05896544    -0.20400
C2210       C  0.81977597  0.93157159  0.08375904    -0.07000
C2211       C  0.80622808  0.92306353  0.05537248     0.13900
C2212       C  0.80697815  0.92395247  0.00351349    -0.20500
C2213       C  0.82105564  0.93271869  0.97889905    -0.07000
C2214       C  0.83428799  0.94160403  0.00729473     0.13900
C2215       C  0.84949863  0.95183811  0.98387561    -0.23800
H2216       H  0.84364201  0.94777253  0.08016140     0.15200
H2217       H  0.79677658  0.91719663  0.98195711     0.15200
C2218       C  0.79112243  0.91270042  0.07881024    -0.23800
H2219       H  0.85784267  0.95883703  0.01183198     0.05400
H2220       H  0.84413138  0.96195186  0.95857120     0.08600
H2221       H  0.85842107  0.94269426  0.96330923     0.08600
H2222       H  0.78326883  0.92146443  0.10366252     0.08600
H2223       H  0.79654809  0.90144332  0.09991715     0.08600
H2224       H  0.78179120  0.90711134  0.05082390     0.05400
C2225       C  0.80385014  0.99057750  0.28422493    -0.20400
C2226       C  0.82054868  0.98247388  0.29049768    -0.07000
C2227       C  0.83568893  0.99341629  0.30022844     0.13900
C2228       C  0.83401285  0.01190276  0.29800564    -0.20500
C2229       C  0.81775206  0.01989656  0.28578017    -0.07000
C2230       C  0.80222642  0.00907364  0.28159550     0.13900
C2231       C  0.78391488  0.01673734  0.27382236    -0.23800
H2232       H  0.79204610  0.98236919  0.27866340     0.15200
H2233       H  0.84585515  0.02011905  0.30279555     0.15200
C2234       C  0.85388408  0.98595183  0.31091898    -0.23800
H2235       H  0.77325826  0.00640117  0.27557995     0.05400
H2236       H  0.78312547  0.02290736  0.23691987     0.08600
H2237       H  0.78105578  0.02673142  0.30302930     0.08600
H2238       H  0.85895526  0.97854496  0.27827302     0.08600
H2239       H  0.85304424  0.97711151  0.34339168     0.08600
H2240       H  0.86385263  0.99652569  0.31950336     0.05400
C2241       C  0.11670465  0.22815469  0.31908491    -0.20400
C2242       C  0.10865860  0.23265416  0.27440277    -0.07000
C2243       C  0.11401395  0.24858631  0.25121853     0.13900
C2244       C  0.12866240  0.25828195  0.27005602    -0.20500
C2245       C  0.13826813  0.25257592  0.31161096    -0.07000
C2246       C  0.13107868  0.23794816  0.33864558     0.13900
C2247       C  0.13837445  0.23203968  0.38786555    -0.23800
H2248       H  0.11210491  0.21642269  0.33829181     0.15200
H2249       H  0.13278246  0.26993310  0.25032058     0.15200
C2250       C  0.10455052  0.25550880  0.20639574    -0.23800
H2251       H  0.13144788  0.21992920  0.40139024     0.05400
H2252       H  0.13613986  0.24236211  0.41640037     0.08600
H2253       H  0.15275047  0.22883992  0.38565740     0.08600
H2254       H  0.09001785  0.25668418  0.21433127     0.08600
H2255       H  0.10669685  0.24653713  0.17433337     0.08600
H2256       H  0.10961778  0.26881458  0.19571190     0.05400
C2257       C  0.06196905  0.18270710  0.02110848    -0.20400
C2258       C  0.07081439  0.19656260  0.04618433    -0.07000
C2259       C  0.07922900  0.21009295  0.01808945     0.13900
C2260       C  0.07948734  0.20869250  0.96626567    -0.20500
C2261       C  0.07173555  0.19412025  0.94148069    -0.07000
C2262       C  0.06233752  0.18122259  0.96950886     0.13900
C2263       C  0.05263915  0.16572268  0.94596108    -0.23800
H2264       H  0.05513238  0.17251756  0.04211378     0.15200
H2265       H  0.08633932  0.21881941  0.94505210     0.15200
C2266       C  0.08813161  0.22598293  0.04188775    -0.23800
H2267       H  0.04516553  0.15771606  0.97356120     0.05400
H2268       H  0.06235843  0.15677142  0.92765310     0.08600
H2269       H  0.04279787  0.17054695  0.91875202     0.08600
H2270       H  0.09972576  0.22175347  0.06415155     0.08600
H2271       H  0.07836575  0.23307993  0.06568708     0.08600
H2272       H  0.09324699  0.23550755  0.01404311     0.05400
C2273       C  0.88698152  0.24009477  0.28818767    -0.20400
C2274       C  0.88197492  0.22278351  0.27433990    -0.07000
C2275       C  0.86365188  0.21780287  0.27561889     0.13900
C2276       C  0.85087989  0.23028507  0.29013706    -0.20500
C2277       C  0.85584093  0.24768287  0.30220176    -0.07000
C2278       C  0.87406560  0.25272043  0.30129166     0.13900
C2279       C  0.87987683  0.27133138  0.31417596    -0.23800
H2280       H  0.90099584  0.24391068  0.28717547     0.15200
H2281       H  0.83683098  0.22659994  0.29061959     0.15200
C2282       C  0.85741250  0.19931801  0.26254415    -0.23800
H2283       H  0.89465823  0.27290343  0.31265252     0.05400
H2284       H  0.87533908  0.27473684  0.35208390     0.08600
H2285       H  0.87403857  0.28078867  0.28778110     0.08600
H2286       H  0.86439320  0.18960776  0.28588945     0.08600
H2287       H  0.86015155  0.19645011  0.22301997     0.08600
H2288       H  0.84279328  0.19756622  0.26863716     0.05400
C2289       C  0.93145312  0.17314619  0.03489268    -0.20400
C2290       C  0.92551676  0.18838305  0.05991706    -0.07000
C2291       C  0.92051703  0.20328726  0.03185340     0.13900
C2292       C  0.92149919  0.20240809  0.98008424    -0.20500
C2293       C  0.92734521  0.18712702  0.95507135    -0.07000
C2294       C  0.93246049  0.17225868  0.98321464     0.13900
C2295       C  0.93885254  0.15524776  0.95976892    -0.23800
H2296       H  0.93534097  0.16169191  0.05595979     0.15200
H2297       H  0.91756237  0.21382723  0.95894544     0.15200
C2298       C  0.91395756  0.22016688  0.05555921    -0.23800
H2299       H  0.94209588  0.14511669  0.98772592     0.05400
H2300       H  0.95121375  0.15778779  0.93796082     0.08600
H2301       H  0.92825006  0.14954319  0.93570357     0.08600
H2302       H  0.92455765  0.22597704  0.07942671     0.08600
H2303       H  0.90171729  0.21742528  0.07770727     0.08600
H2304       H  0.91049935  0.23026511  0.02771712     0.05400
C2305       C  0.89633617  0.12213459  0.22127506    -0.20400
C2306       C  0.89488578  0.13618241  0.25531348    -0.07000
C2307       C  0.88174699  0.13507528  0.29302741     0.13900
C2308       C  0.86951541  0.12081577  0.29285459    -0.20500
C2309       C  0.86996889  0.10753763  0.25614038    -0.07000
C2310       C  0.88419185  0.10781991  0.22117919     0.13900
C2311       C  0.88658755  0.09348208  0.18265905    -0.23800
H2312       H  0.90666790  0.12270885  0.19308441     0.15200
H2313       H  0.85896311  0.12054341  0.32042209     0.15200
C2314       C  0.87983789  0.14923690  0.33215904    -0.23800
H2315       H  0.89899905  0.09549703  0.16059543     0.05400
H2316       H  0.87522112  0.09344270  0.15647894     0.08600
H2317       H  0.88756191  0.08040769  0.20081367     0.08600
H2318       H  0.87700321  0.16213109  0.31474634     0.08600
H2319       H  0.89233905  0.15026575  0.35397362     0.08600
H2320       H  0.86870398  0.14626835  0.35820581     0.05400
C2321       C  0.98894502  0.17533857  0.25741020    -0.20400
C2322       C  0.97962672  0.19133666  0.25477668    -0.07000
C2323       C  0.98952377  0.20742336  0.25376556     0.13900
C2324       C  0.00831925  0.20692354  0.25136090    -0.20500
C2325       C  0.01762572  0.19081600  0.24970868    -0.07000
C2326       C  0.00770147  0.17478664  0.25459197     0.13900
C2327       C  0.01648604  0.15690399  0.25531221    -0.23800
H2328       H  0.98144719  0.16299858  0.25895662     0.15200
H2329       H  0.01574844  0.21928173  0.24900606     0.15200
C2330       C  0.98050570  0.22518636  0.25548438    -0.23800
H2331       H  0.00660274  0.14600537  0.26075053     0.05400
H2332       H  0.02617140  0.15637426  0.28617321     0.08600
H2333       H  0.02338933  0.15435391  0.21962535     0.08600
H2334       H  0.97154638  0.22594539  0.28824184     0.08600
H2335       H  0.97269067  0.22724135  0.22137654     0.08600
H2336       H  0.99037502  0.23623845  0.25828160     0.05400
C2337       C  0.23819302  0.13406721  0.33977630    -0.20400
C2338       C  0.24567627  0.14632919  0.30601234    -0.07000
C2339       C  0.24241153  0.14301667  0.25475924     0.13900
C2340       C  0.23174524  0.12855293  0.23999619    -0.20500
C2341       C  0.22355002  0.11720898  0.27398493    -0.07000
C2342       C  0.22743480  0.11961068  0.32461064     0.13900
C2343       C  0.22011572  0.10723601  0.36330810    -0.23800
H2344       H  0.23948514  0.13624378  0.37894119     0.15200
H2345       H  0.22908956  0.12659378  0.20103012     0.15200
C2346       C  0.24932210  0.15472918  0.21416278    -0.23800
H2347       H  0.22546032  0.11042395  0.40054582     0.05400
H2348       H  0.22393528  0.09342198  0.35412624     0.08600
H2349       H  0.20534073  0.10826592  0.36550286     0.08600
H2350       H  0.26395054  0.15305482  0.21039882     0.08600
H2351       H  0.24552477  0.16863437  0.22140980     0.08600
H2352       H  0.24365444  0.15110128  0.17759074     0.05400
C2353       C  0.20239270  0.08313796  0.02797237    -0.20400
C2354       C  0.18667063  0.07723235  0.05170748    -0.07000
C2355       C  0.17233087  0.07075425  0.02232531     0.13900
C2356       C  0.17408743  0.07058260  0.97079018    -0.20500
C2357       C  0.18969166  0.07663985  0.94694564    -0.07000
C2358       C  0.20414973  0.08291547  0.97621078     0.13900
C2359       C  0.22140655  0.08961665  0.95374253    -0.23800
H2360       H  0.21342497  0.08808581  0.05009862     0.15200
H2361       H  0.16294646  0.06577179  0.94885854     0.15200
C2362       C  0.15488410  0.06426595  0.04425927    -0.23800
H2363       H  0.23115391  0.09391439  0.98234790     0.05400
H2364       H  0.21876010  0.10120836  0.93004862     0.08600
H2365       H  0.22774784  0.07893557  0.93158752     0.08600
H2366       H  0.14857563  0.07501185  0.06625993     0.08600
H2367       H  0.15727912  0.05258984  0.06782985     0.08600
H2368       H  0.14516827  0.06009486  0.01543092     0.05400
C2369       C  0.13421033  0.13042234  0.26309016    -0.20400
C2370       C  0.13587188  0.11899699  0.22200372    -0.07000
C2371       C  0.12383192  0.12097638  0.18204271     0.13900
C2372       C  0.11113754  0.13453574  0.18366661    -0.20500
C2373       C  0.10996383  0.14635347  0.22371057    -0.07000
C2374       C  0.12151356  0.14409720  0.26440433     0.13900
C2375       C  0.12116722  0.15650646  0.30825495    -0.23800
H2376       H  0.14331055  0.12905007  0.29379022     0.15200
H2377       H  0.10218762  0.13613250  0.15269786     0.15200
C2378       C  0.12413395  0.10904790  0.13707160    -0.23800
H2379       H  0.13158923  0.15321098  0.33566824     0.05400
H2380       H  0.10797942  0.15560956  0.32711952     0.08600
H2381       H  0.12364665  0.17030932  0.29598418     0.08600
H2382       H  0.12254206  0.09502254  0.14835025     0.08600
H2383       H  0.13686609  0.11089681  0.11641560     0.08600
H2384       H  0.11310913  0.11202226  0.11118842     0.05400
C2385       C  0.22538879  0.87979487  0.22439981    -0.20400
C2386       C  0.22194881  0.89361993  0.25776841    -0.07000
C2387       C  0.22913839  0.89256125  0.30582439     0.13900
C2388       C  0.23851152  0.87730220  0.31974959    -0.20500
C2389       C  0.24088506  0.86267144  0.28744451    -0.07000
C2390       C  0.23457373  0.86451508  0.23806554     0.13900
C2391       C  0.23718121  0.85064649  0.19837691    -0.23800
H2392       H  0.22042334  0.88071368  0.18701154     0.15200
H2393       H  0.24321653  0.87693546  0.35708963     0.15200
C2394       C  0.22672372  0.90720437  0.34338137    -0.23800
H2395       H  0.22999336  0.85387695  0.16388037     0.05400
H2396       H  0.23210568  0.83753504  0.21009052     0.08600
H2397       H  0.25146965  0.85014965  0.18833063     0.08600
H2398       H  0.21230022  0.90884048  0.35201478     0.08600
H2399       H  0.23241429  0.91976437  0.32884380     0.08600
H2400       H  0.23361554  0.90436106  0.37860516     0.05400
C2401       C  0.17564100  0.94386701  0.02068126    -0.20400
C2402       C  0.19029220  0.93781911  0.04766224    -0.07000
C2403       C  0.20554154  0.93163263  0.02163933     0.13900
C2404       C  0.20532573  0.93102083  0.96968282    -0.20500
C2405       C  0.19033452  0.93642907  0.94272517    -0.07000
C2406       C  0.17539065  0.94331206  0.96894935     0.13900
C2407       C  0.15895011  0.95009787  0.94342127    -0.23800
H2408       H  0.16405388  0.94885809  0.04036277     0.15200
H2409       H  0.21685624  0.92589226  0.95004970     0.15200
C2410       C  0.22189236  0.92511943  0.04798277    -0.23800
H2411       H  0.14908970  0.95566710  0.96998181     0.05400
H2412       H  0.15211325  0.93912580  0.92331643     0.08600
H2413       H  0.16275366  0.96082680  0.91752458     0.08600
H2414       H  0.21820890  0.91387494  0.07225827     0.08600
H2415       H  0.22787995  0.93603472  0.07028338     0.08600
H2416       H  0.23231238  0.92042157  0.02173713     0.05400
C2417       C  0.16575152  0.99756256  0.25220546    -0.20400
C2418       C  0.18230593  0.98898020  0.25540358    -0.07000
C2419       C  0.19783042  0.99938649  0.26487000     0.13900
C2420       C  0.19661555  0.01796531  0.26524384    -0.20500
C2421       C  0.18034796  0.02658308  0.25664673    -0.07000
C2422       C  0.16453091  0.01613545  0.25247504     0.13900
C2423       C  0.14637101  0.02424576  0.24565989    -0.23800
H2424       H  0.15371160  0.98972097  0.24644993     0.15200
H2425       H  0.20868729  0.02583305  0.27019581     0.15200
C2426       C  0.21581222  0.99119321  0.27402374    -0.23800
H2427       H  0.13559368  0.01404010  0.24352463     0.05400
H2428       H  0.14611675  0.03184083  0.21078242     0.08600
H2429       H  0.14325362  0.03307886  0.27744567     0.08600
H2430       H  0.22077389  0.98454439  0.24003496     0.08600
H2431       H  0.21470316  0.98151576  0.30454051     0.08600
H2432       H  0.22600271  0.00129186  0.28476356     0.05400
C2433       C  0.12559048  0.76572525  0.35046295    -0.20400
C2434       C  0.13495037  0.75552203  0.31474607    -0.07000
C2435       C  0.12987334  0.75771564  0.26441013     0.13900
C2436       C  0.11650116  0.76975671  0.25218431    -0.20500
C2437       C  0.10824816  0.78058066  0.28754386    -0.07000
C2438       C  0.11239895  0.77803072  0.33777409     0.13900
C2439       C  0.10355339  0.78857843  0.37843599    -0.23800
H2440       H  0.12952989  0.76539509  0.38869609     0.15200
H2441       H  0.11315398  0.77139968  0.21363414     0.15200
C2442       C  0.13887344  0.74848400  0.22180055    -0.23800
H2443       H  0.10790677  0.78430997  0.41557682     0.05400
H2444       H  0.08881440  0.78674489  0.37657690     0.08600
H2445       H  0.10708812  0.80281551  0.37491589     0.08600
H2446       H  0.13577155  0.73413565  0.22286395     0.08600
H2447       H  0.15339124  0.75139311  0.22255274     0.08600
H2448       H  0.13402837  0.75308818  0.18545886     0.05400
C2449       C  0.06405194  0.82774192  0.04126939    -0.20400
C2450       C  0.07661417  0.81773324  0.06702999    -0.07000
C2451       C  0.08882749  0.80716970  0.03985948     0.13900
C2452       C  0.08822187  0.80717200  0.98804209    -0.20500
C2453       C  0.07604623  0.81767880  0.96220321    -0.07000
C2454       C  0.06366809  0.82804186  0.98955104     0.13900
C2455       C  0.05008075  0.83970747  0.96524265    -0.23800
H2456       H  0.05467449  0.83585110  0.06179551     0.15200
H2457       H  0.09768903  0.79915660  0.96755494     0.15200
C2458       C  0.10259573  0.79585370  0.06465423    -0.23800
H2459       H  0.04139420  0.84651820  0.99267841     0.05400
H2460       H  0.04124256  0.83160373  0.94099343     0.08600
H2461       H  0.05699075  0.85014477  0.94349381     0.08600
H2462       H  0.09588839  0.78641257  0.09009876     0.08600
H2463       H  0.11220417  0.80435472  0.08536215     0.08600
H2464       H  0.11046163  0.78799435  0.03751860     0.05400
C2465       C  0.12479560  0.87211187  0.27393941    -0.20400
C2466       C  0.11081721  0.87191882  0.23931394    -0.07000
C2467       C  0.10989957  0.88595878  0.20486300     0.13900
C2468       C  0.12318404  0.89921934  0.20512879    -0.20500
C2469       C  0.13760138  0.89886131  0.23799404    -0.07000
C2470       C  0.13825084  0.88525800  0.27351737     0.13900
C2471       C  0.15354562  0.88386735  0.30929636    -0.23800
H2472       H  0.12565956  0.86148134  0.30039173     0.15200
H2473       H  0.12265048  0.90968971  0.17807248     0.15200
C2474       C  0.09537756  0.88703851  0.16656841    -0.23800
H2475       H  0.15219012  0.87202381  0.33309298     0.05400
H2476       H  0.15390712  0.89570680  0.33381823     0.08600
H2477       H  0.16639501  0.88279807  0.28876555     0.08600
H2478       H  0.08205799  0.88720643  0.18487153     0.08600
H2479       H  0.09626180  0.87562155  0.14063831     0.08600
H2480       H  0.09658902  0.89924585  0.14417223     0.05400
C2481       C  0.91415017  0.81857302  0.03546421    -0.20400
C2482       C  0.93021952  0.82092743  0.06127443    -0.07000
C2483       C  0.94625522  0.82384355  0.03432707     0.13900
C2484       C  0.94568292  0.82423286  0.98243180    -0.20500
C2485       C  0.92954867  0.82182165  0.95653380    -0.07000
C2486       C  0.91353045  0.81899741  0.98378050     0.13900
C2487       C  0.89554705  0.81692034  0.95930601    -0.23800
H2488       H  0.90185705  0.81638656  0.05602930     0.15200
H2489       H  0.95797384  0.82650130  0.96194434     0.15200
C2490       C  0.96388350  0.82720847  0.05971913    -0.23800
H2491       H  0.88450510  0.81565590  0.98669361     0.05400
H2492       H  0.89530252  0.80476959  0.93600418     0.08600
H2493       H  0.89278984  0.82870924  0.93646919     0.08600
H2494       H  0.96779638  0.81536759  0.08090578     0.08600
H2495       H  0.96274279  0.83879456  0.08500300     0.08600
H2496       H  0.97479848  0.83007851  0.03288376     0.05400
C2497       C  0.90183321  0.88490504  0.24039783    -0.20400
C2498       C  0.89868485  0.86956544  0.26835837    -0.07000
C2499       C  0.88438693  0.86957138  0.30305734     0.13900
C2500       C  0.87259156  0.88396201  0.30450003    -0.20500
C2501       C  0.87451911  0.89820097  0.27189743    -0.07000
C2502       C  0.88997237  0.89920137  0.24169094     0.13900
C2503       C  0.89405413  0.91522436  0.21060667    -0.23800
H2504       H  0.91318291  0.88538423  0.21536875     0.15200
H2505       H  0.86095846  0.88338534  0.32852014     0.15200
C2506       C  0.88071615  0.85416870  0.33675831    -0.23800
H2507       H  0.90738871  0.91428504  0.19253229     0.05400
H2508       H  0.89408350  0.92730113  0.23426455     0.08600
H2509       H  0.88402259  0.91655696  0.18093362     0.08600
H2510       H  0.89255612  0.85183542  0.36030624     0.08600
H2511       H  0.87755982  0.84210764  0.31466306     0.08600
H2512       H  0.86913366  0.85666065  0.36163192     0.05400
C2513       C  0.99123658  0.83546151  0.27347896    -0.20400
C2514       C  0.98261258  0.81918165  0.26391166    -0.07000
C2515       C  0.99314632  0.80373285  0.25934958     0.13900
C2516       C  0.01185732  0.80526062  0.26181716    -0.20500
C2517       C  0.02053263  0.82177826  0.26717218    -0.07000
C2518       C  0.00995022  0.83706478  0.27444501     0.13900
C2519       C  0.01802167  0.85529129  0.28127630    -0.23800
H2520       H  0.98329991  0.84730688  0.27774903     0.15200
H2521       H  0.01980216  0.79344937  0.25690389     0.15200
C2522       C  0.98506766  0.78563224  0.25001368    -0.23800
H2523       H  0.00764420  0.86549489  0.28766169     0.05400
H2524       H  0.02559633  0.85914958  0.24763787     0.08600
H2525       H  0.02698532  0.85546044  0.31381098     0.08600
H2526       H  0.97816320  0.78534877  0.21384051     0.08600
H2527       H  0.97549624  0.78226301  0.28004501     0.08600
H2528       H  0.99538412  0.77515315  0.24882024     0.05400
C2529       C  0.77698664  0.85645385  0.76422782    -0.20400
C2530       C  0.76460475  0.86014782  0.72680495    -0.07000
C2531       C  0.76076881  0.87823081  0.71783010     0.13900
C2532       C  0.77222895  0.89145532  0.73695382    -0.20500
C2533       C  0.78618862  0.88737801  0.76933682    -0.07000
C2534       C  0.78795000  0.86963522  0.78506575     0.13900
C2535       C  0.80172720  0.86412017  0.82228879    -0.23800
H2536       H  0.77860658  0.84292436  0.77618776     0.15200
H2537       H  0.76982451  0.90516562  0.72775063     0.15200
C2538       C  0.74396768  0.88432693  0.69289649    -0.23800
H2539       H  0.80136008  0.84962836  0.82889354     0.05400
H2540       H  0.79913097  0.87078016  0.85825649     0.08600
H2541       H  0.81536080  0.86754256  0.80872311     0.08600
H2542       H  0.73396131  0.87354228  0.68815941     0.08600
H2543       H  0.74732549  0.89034385  0.65672652     0.08600
H2544       H  0.73735699  0.89448673  0.71637751     0.05400
C2545       C  0.64243976  0.74427096  0.76236430    -0.20400
C2546       C  0.63940202  0.75387992  0.80642558    -0.07000
C2547       C  0.62151862  0.75442970  0.82471737     0.13900
C2548       C  0.60861492  0.74259739  0.80507149    -0.20500
C2549       C  0.61247187  0.73154377  0.76451488    -0.07000
C2550       C  0.62942890  0.73311443  0.74143199     0.13900
C2551       C  0.63449143  0.72229566  0.69649104    -0.23800
H2552       H  0.65567723  0.74460717  0.74580552     0.15200
H2553       H  0.59525886  0.74229839  0.82087920     0.15200
C2554       C  0.61492591  0.76826059  0.86050557    -0.23800
H2555       H  0.64857818  0.72472721  0.68493962     0.05400
H2556       H  0.62585698  0.72583600  0.66495088     0.08600
H2557       H  0.63303160  0.70796503  0.70454956     0.08600
H2558       H  0.62341346  0.78037495  0.85954414     0.08600
H2559       H  0.61401612  0.76269459  0.89822888     0.08600
H2560       H  0.60135788  0.77264852  0.84976613     0.05400
C2561       C  0.69339894  0.80863592  0.78308701    -0.20400
C2562       C  0.69519826  0.79022740  0.78528394    -0.07000
C2563       C  0.70770871  0.78189745  0.75331665     0.13900
C2564       C  0.71955826  0.79232757  0.72515834    -0.20500
C2565       C  0.71856571  0.81085505  0.72540001    -0.07000
C2566       C  0.70433772  0.81894181  0.75193719     0.13900
C2567       C  0.69959577  0.83816257  0.74613627    -0.23800
H2568       H  0.68294064  0.81496439  0.80456277     0.15200
H2569       H  0.72965833  0.78583417  0.70297036     0.15200
C2570       C  0.70865741  0.76213225  0.74631534    -0.23800
H2571       H  0.68523867  0.83917634  0.73630277     0.05400
H2572       H  0.70722955  0.84472842  0.71615244     0.08600
H2573       H  0.70190971  0.84538504  0.78141211     0.08600
H2574       H  0.69812223  0.75488810  0.76668606     0.08600
H2575       H  0.72194833  0.75736394  0.75815254     0.08600
H2576       H  0.70687690  0.75881546  0.70662329     0.05400
C2577       C  0.73647893  0.64101928  0.85990070    -0.20400
C2578       C  0.73835644  0.65485913  0.82599417    -0.07000
C2579       C  0.72962110  0.65348587  0.78002734     0.13900
C2580       C  0.72043478  0.63786755  0.76756139    -0.20500
C2581       C  0.71856276  0.62377216  0.80083167    -0.07000
C2582       C  0.72648464  0.62556651  0.84825143     0.13900
C2583       C  0.72467691  0.61134537  0.88661425    -0.23800
H2584       H  0.74301462  0.64224668  0.89540253     0.15200
H2585       H  0.71403102  0.63708186  0.73179073     0.15200
C2586       C  0.72900736  0.66852991  0.74385359    -0.23800
H2587       H  0.73210965  0.61482343  0.92080294     0.05400
H2588       H  0.73010801  0.59871453  0.87196540     0.08600
H2589       H  0.71039178  0.60953348  0.89694584     0.08600
H2590       H  0.73483567  0.68099626  0.75860776     0.08600
H2591       H  0.71485886  0.67136244  0.73473511     0.08600
H2592       H  0.73622513  0.66477963  0.70947596     0.05400
C2593       C  0.71272352  0.70879929  0.86716941    -0.20400
C2594       C  0.73019848  0.71501949  0.85880275    -0.07000
C2595       C  0.73339516  0.73358520  0.86000917     0.13900
C2596       C  0.71884310  0.74510147  0.85949272    -0.20500
C2597       C  0.70120533  0.73885890  0.86500021    -0.07000
C2598       C  0.69849665  0.72053199  0.87423994     0.13900
C2599       C  0.68132997  0.71292930  0.89492883    -0.23800
H2600       H  0.71009778  0.69470465  0.86950616     0.15200
H2601       H  0.72155425  0.75907835  0.85494667     0.15200
C2602       C  0.75175060  0.74191451  0.86494963    -0.23800
H2603       H  0.68437874  0.70480349  0.92775562     0.05400
H2604       H  0.67472560  0.70433596  0.86685825     0.08600
H2605       H  0.67198349  0.72327341  0.90799013     0.08600
H2606       H  0.75547292  0.74876650  0.83024730     0.08600
H2607       H  0.76221092  0.73231459  0.87478155     0.08600
H2608       H  0.75158223  0.75180532  0.89552349     0.05400
C2609       C  0.87430626  0.75878508  0.73767490    -0.20400
C2610       C  0.86567718  0.76290019  0.69298747    -0.07000
C2611       C  0.87255722  0.77765035  0.66576358     0.13900
C2612       C  0.88659611  0.78801690  0.68541083    -0.20500
C2613       C  0.89427157  0.78446054  0.73137231    -0.07000
C2614       C  0.88826101  0.76929019  0.75723766     0.13900
C2615       C  0.89601131  0.76416463  0.80635779    -0.23800
H2616       H  0.86977333  0.74786140  0.75972946     0.15200
H2617       H  0.89131099  0.79942609  0.66495714     0.15200
C2618       C  0.86519973  0.78321585  0.61630152    -0.23800
H2619       H  0.89007309  0.75164650  0.82048159     0.05400
H2620       H  0.89328232  0.77462721  0.83433365     0.08600
H2621       H  0.91064621  0.76214892  0.80254234     0.08600
H2622       H  0.85066715  0.78573054  0.61821743     0.08600
H2623       H  0.86807247  0.77311416  0.58765378     0.08600
H2624       H  0.87154687  0.79567666  0.60313283     0.05400
C2625       C  0.80258710  0.78705282  0.62942926    -0.20400
C2626       C  0.80067045  0.77256281  0.66112353    -0.07000
C2627       C  0.78473752  0.77055561  0.68892940     0.13900
C2628       C  0.77178496  0.78390539  0.68732006    -0.20500
C2629       C  0.77427463  0.79892069  0.65792024    -0.07000
C2630       C  0.78947934  0.80010068  0.62685857     0.13900
C2631       C  0.79247249  0.81514608  0.59146703    -0.23800
H2632       H  0.81465949  0.78848337  0.60744987     0.15200
H2633       H  0.76029123  0.78319053  0.71168041     0.15200
C2634       C  0.78182193  0.75506936  0.72276282    -0.23800
H2635       H  0.79411881  0.80975385  0.55346048     0.05400
H2636       H  0.80478864  0.82259890  0.60180953     0.08600
H2637       H  0.78115866  0.82449158  0.59087912     0.08600
H2638       H  0.79273019  0.75460731  0.75024547     0.08600
H2639       H  0.78147881  0.74255916  0.70111656     0.08600
H2640       H  0.76893337  0.75603066  0.74314484     0.05400
C2641       C  0.80195208  0.70747505  0.70848491    -0.20400
C2642       C  0.81363169  0.71971308  0.73068899    -0.07000
C2643       C  0.81302584  0.72172613  0.78274844     0.13900
C2644       C  0.80144389  0.71098506  0.81049881    -0.20500
C2645       C  0.78959089  0.69851767  0.78891061    -0.07000
C2646       C  0.78946862  0.69750540  0.73612609     0.13900
C2647       C  0.77560996  0.68719260  0.70724273    -0.23800
H2648       H  0.80199540  0.70630447  0.66864698     0.15200
H2649       H  0.80067646  0.71373883  0.84956908     0.15200
C2650       C  0.82298734  0.73634981  0.80989531    -0.23800
H2651       H  0.77618099  0.69028832  0.66725162     0.05400
H2652       H  0.76198734  0.69066691  0.72005898     0.08600
H2653       H  0.77803004  0.67281334  0.70999125     0.08600
H2654       H  0.82108328  0.74923752  0.79138217     0.08600
H2655       H  0.83739299  0.73325580  0.81242995     0.08600
H2656       H  0.81812273  0.73799292  0.84844957     0.05400
C2657       C  0.72230719  0.63594744  0.28536973    -0.20400
C2658       C  0.71687965  0.62169254  0.25552941    -0.07000
C2659       C  0.72204940  0.62160695  0.20513438     0.13900
C2660       C  0.73153884  0.63621339  0.18581571    -0.20500
C2661       C  0.73552904  0.65136829  0.21474335    -0.07000
C2662       C  0.73095809  0.65087107  0.26605679     0.13900
C2663       C  0.73381100  0.66593220  0.30255491    -0.23800
H2664       H  0.71872913  0.63606279  0.32421772     0.15200
H2665       H  0.73488811  0.63582782  0.14716698     0.15200
C2666       C  0.71740065  0.60642310  0.17087547    -0.23800
H2667       H  0.74325323  0.66170972  0.33158091     0.05400
H2668       H  0.72084240  0.66925195  0.32038724     0.08600
H2669       H  0.73892430  0.67838219  0.28690090     0.08600
H2670       H  0.70267115  0.60536236  0.16659151     0.08600
H2671       H  0.72272271  0.59389269  0.18575509     0.08600
H2672       H  0.72321857  0.60825761  0.13343831     0.05400
C2673       C  0.76892546  0.67479427  0.04204375    -0.20400
C2674       C  0.75801828  0.68764090  0.06496365    -0.07000
C2675       C  0.75053718  0.70103593  0.03518666     0.13900
C2676       C  0.75347858  0.70065544  0.98394353    -0.20500
C2677       C  0.76350025  0.68728740  0.96126120    -0.07000
C2678       C  0.77158823  0.67435595  0.99057777     0.13900
C2679       C  0.78215135  0.65956767  0.96736230    -0.23800
H2680       H  0.77481648  0.66457260  0.06439666     0.15200
H2681       H  0.74734051  0.71055606  0.96094731     0.15200
C2682       C  0.73835078  0.71506675  0.05561891    -0.23800
H2683       H  0.78710778  0.65021133  0.99544565     0.05400
H2684       H  0.79389387  0.66508109  0.94729943     0.08600
H2685       H  0.77358112  0.65202836  0.94105215     0.08600
H2686       H  0.74574596  0.72417257  0.08053462     0.08600
H2687       H  0.72701880  0.70872396  0.07509886     0.08600
H2688       H  0.73263303  0.72333557  0.02601094     0.05400
C2689       C  0.87738887  0.75800309  0.32900346    -0.20400
C2690       C  0.86151406  0.75646981  0.30119580    -0.07000
C2691       C  0.86201041  0.76287625  0.25186631     0.13900
C2692       C  0.87638149  0.77362534  0.23657251    -0.20500
C2693       C  0.89087922  0.77745853  0.26765765    -0.07000
C2694       C  0.89199296  0.76839323  0.31301891     0.13900
C2695       C  0.90839188  0.76957186  0.34513048    -0.23800
H2696       H  0.87852251  0.75165860  0.36421990     0.15200
H2697       H  0.87599161  0.77950040  0.20025501     0.15200
C2698       C  0.84763827  0.75860813  0.21444508    -0.23800
H2699       H  0.90742409  0.76054061  0.37719341     0.05400
H2700       H  0.91007929  0.78320040  0.36003571     0.08600
H2701       H  0.92039651  0.76578003  0.32331267     0.08600
H2702       H  0.83425175  0.76231944  0.22792895     0.08600
H2703       H  0.84774870  0.74427971  0.20546696     0.08600
H2704       H  0.84990319  0.76569819  0.17918709     0.05400
C2705       C  0.82169995  0.72585176  0.47867128    -0.20400
C2706       C  0.82456676  0.74207468  0.45460362    -0.07000
C2707       C  0.82732695  0.75762318  0.48339163     0.13900
C2708       C  0.82795594  0.75638668  0.53466968    -0.20500
C2709       C  0.82632788  0.74011047  0.55853551    -0.07000
C2710       C  0.82253684  0.72471220  0.53058894     0.13900
C2711       C  0.82009107  0.70711191  0.55535466    -0.23800
H2712       H  0.81980191  0.71391778  0.45685526     0.15200
H2713       H  0.83076359  0.76821958  0.55626881     0.15200
C2714       C  0.83052540  0.77575094  0.46198003    -0.23800
H2715       H  0.81759076  0.69631012  0.52811155     0.05400
H2716       H  0.80845268  0.70771124  0.58085810     0.08600
H2717       H  0.83227436  0.70385650  0.57656874     0.08600
H2718       H  0.82993596  0.77600350  0.42137223     0.08600
H2719       H  0.84394634  0.78071662  0.47317574     0.08600
H2720       H  0.82027668  0.78501983  0.47647129     0.05400
C2721       C  0.80480984  0.72160765  0.23676779    -0.20400
C2722       C  0.80455775  0.72016345  0.28870963    -0.07000
C2723       C  0.79123322  0.70938057  0.31068556     0.13900
C2724       C  0.77813140  0.70136223  0.28092860    -0.20500
C2725       C  0.77863888  0.70238207  0.22903464    -0.07000
C2726       C  0.79252249  0.71238104  0.20668025     0.13900
C2727       C  0.79546844  0.71304452  0.15165897    -0.23800
H2728       H  0.81482634  0.72989429  0.21908839     0.15200
H2729       H  0.76765353  0.69370619  0.29877256     0.15200
C2730       C  0.79085231  0.70511045  0.36486905    -0.23800
H2731       H  0.80947542  0.70930435  0.14297421     0.05400
H2732       H  0.79318459  0.72669428  0.13837462     0.08600
H2733       H  0.78678772  0.70372062  0.13092406     0.08600
H2734       H  0.77888219  0.71109437  0.38248620     0.08600
H2735       H  0.80302556  0.70969866  0.38425288     0.08600
H2736       H  0.79017380  0.69052737  0.36958163     0.05400
C2737       C  0.62564215  0.74350214  0.16266334    -0.20400
C2738       C  0.63088490  0.75760446  0.19428613    -0.07000
C2739       C  0.62042565  0.76033674  0.23796225     0.13900
C2740       C  0.60670638  0.74819638  0.24985374    -0.20500
C2741       C  0.60329858  0.73304595  0.22111994    -0.07000
C2742       C  0.61239182  0.73112048  0.17559606     0.13900
C2743       C  0.60933610  0.71543617  0.14173189    -0.23800
H2744       H  0.63330719  0.74098671  0.12933618     0.15200
H2745       H  0.59927596  0.74994594  0.28399183     0.15200
C2746       C  0.62369502  0.77495555  0.27474567    -0.23800
H2747       H  0.61772666  0.71617155  0.10783473     0.05400
H2748       H  0.59514144  0.71494818  0.12994072     0.08600
H2749       H  0.61282575  0.70301729  0.16091086     0.08600
H2750       H  0.62215386  0.78799075  0.25682840     0.08600
H2751       H  0.63697753  0.77316176  0.29151225     0.08600
H2752       H  0.61392501  0.77471828  0.30578139     0.05400
C2753       C  0.66365386  0.79012322  0.03611493    -0.20400
C2754       C  0.67387646  0.77767243  0.06177712    -0.07000
C2755       C  0.68545940  0.76655975  0.03420482     0.13900
C2756       C  0.68559270  0.76737058  0.98232580    -0.20500
C2757       C  0.67402968  0.77852638  0.95675142    -0.07000
C2758       C  0.66355678  0.79068039  0.98411095     0.13900
C2759       C  0.65229927  0.80426955  0.95870577    -0.23800
H2760       H  0.65494271  0.79885356  0.05692629     0.15200
H2761       H  0.69373214  0.75811880  0.96156571     0.15200
C2762       C  0.69632241  0.75247163  0.05831377    -0.23800
H2763       H  0.64566350  0.81323782  0.98568757     0.05400
H2764       H  0.64166772  0.79777870  0.93647530     0.08600
H2765       H  0.66090808  0.81246770  0.93420793     0.08600
H2766       H  0.68708020  0.74311000  0.07678818     0.08600
H2767       H  0.70581857  0.75844808  0.08507617     0.08600
H2768       H  0.70429562  0.74476548  0.03107498     0.05400
C2769       C  0.69085320  0.72472656  0.15848378    -0.20400
C2770       C  0.69494704  0.74120836  0.18006732    -0.07000
C2771       C  0.71204809  0.74387276  0.20133165     0.13900
C2772       C  0.72471311  0.73014525  0.19881560    -0.20500
C2773       C  0.72058893  0.71379876  0.17635681    -0.07000
C2774       C  0.70343429  0.71122598  0.15512278     0.13900
C2775       C  0.69793162  0.69474456  0.12679940    -0.23800
H2776       H  0.67778215  0.72255146  0.14216181     0.15200
H2777       H  0.73769177  0.73195262  0.21590509     0.15200
C2778       C  0.71661494  0.76053024  0.22973062    -0.23800
H2779       H  0.69280984  0.69853719  0.08999799     0.05400
H2780       H  0.68711446  0.68770451  0.14716894     0.08600
H2781       H  0.70905627  0.68549477  0.11978475     0.08600
H2782       H  0.70636940  0.76289887  0.25880364     0.08600
H2783       H  0.71733159  0.77201623  0.20474363     0.08600
H2784       H  0.72982144  0.75957871  0.24806931     0.05400
C2785       C  0.75939353  0.87492645  0.32599097    -0.20400
C2786       C  0.76558682  0.85747674  0.32277843    -0.07000
C2787       C  0.78328504  0.85438311  0.30675103     0.13900
C2788       C  0.79435219  0.86876900  0.29455417    -0.20500
C2789       C  0.78826967  0.88626945  0.29775322    -0.07000
C2790       C  0.77053414  0.88940137  0.31405726     0.13900
C2791       C  0.76302494  0.90780300  0.31739236    -0.23800
H2792       H  0.74572888  0.87720008  0.33786764     0.15200
H2793       H  0.80788426  0.86627978  0.28188119     0.15200
C2794       C  0.79035834  0.83595484  0.29983163    -0.23800
H2795       H  0.74873978  0.90765014  0.32890049     0.05400
H2796       H  0.76394288  0.91427843  0.28081773     0.08600
H2797       H  0.77056551  0.91573092  0.34513841     0.08600
H2798       H  0.78157488  0.82850778  0.27396571     0.08600
H2799       H  0.79094035  0.82917271  0.33584183     0.08600
H2800       H  0.80409989  0.83599048  0.28404142     0.05400
C2801       C  0.72623824  0.82241391  0.49031888    -0.20400
C2802       C  0.73809644  0.83259924  0.46126296    -0.07000
C2803       C  0.75027240  0.84411584  0.48570290     0.13900
C2804       C  0.75188925  0.84336503  0.53703927    -0.20500
C2805       C  0.74017773  0.83315489  0.56636716    -0.07000
C2806       C  0.72656797  0.82318072  0.54234268     0.13900
C2807       C  0.71173478  0.81381338  0.56982563    -0.23800
H2808       H  0.71651191  0.81381142  0.47244554     0.15200
H2809       H  0.76240254  0.85121355  0.55408985     0.15200
C2810       C  0.76105893  0.85822517  0.45981637    -0.23800
H2811       H  0.69863090  0.81789922  0.55477554     0.05400
H2812       H  0.71144145  0.81716742  0.60966051     0.08600
H2813       H  0.71306935  0.79927732  0.56500562     0.08600
H2814       H  0.75644397  0.86039211  0.42181197     0.08600
H2815       H  0.77545864  0.85476264  0.45982546     0.08600
H2816       H  0.75937347  0.87109244  0.47936547     0.05400
C2817       C  0.79122180  0.77890205  0.38933473    -0.20400
C2818       C  0.79857856  0.77429054  0.34327489    -0.07000
C2819       C  0.79109774  0.78112766  0.29985963     0.13900
C2820       C  0.77683607  0.79285585  0.30365036    -0.20500
C2821       C  0.77020702  0.79839013  0.34971124    -0.07000
C2822       C  0.77735240  0.79123242  0.39328808     0.13900
C2823       C  0.77001204  0.79590041  0.44364264    -0.23800
H2824       H  0.79639503  0.77289696  0.42234842     0.15200
H2825       H  0.77099481  0.79804106  0.27027821     0.15200
C2826       C  0.79774817  0.77582046  0.24939291    -0.23800
H2827       H  0.77263706  0.81003398  0.45234263     0.05400
H2828       H  0.75538660  0.79322106  0.44486467     0.08600
H2829       H  0.77637412  0.78802705  0.47308729     0.08600
H2830       H  0.79776931  0.76117376  0.24567589     0.08600
H2831       H  0.81140815  0.78123103  0.24369448     0.08600
H2832       H  0.78920611  0.78114612  0.21968565     0.05400
C2833       C  0.69723926  0.80810798  0.31159386    -0.20400
C2834       C  0.71127505  0.81776022  0.28946462    -0.07000
C2835       C  0.71267333  0.81688632  0.23671190     0.13900
C2836       C  0.69965672  0.80758065  0.20915136    -0.20500
C2837       C  0.68597872  0.79779014  0.23176791    -0.07000
C2838       C  0.68497507  0.79794728  0.28419545     0.13900
C2839       C  0.67208720  0.78645945  0.31291470    -0.23800
H2840       H  0.69655247  0.80712074  0.35125819     0.15200
H2841       H  0.70068001  0.80726821  0.16924240     0.15200
C2842       C  0.72829413  0.82451078  0.20806347    -0.23800
H2843       H  0.67580128  0.78554508  0.35244683     0.05400
H2844       H  0.67192182  0.77272543  0.29799904     0.08600
H2845       H  0.65866417  0.79246705  0.31222008     0.08600
H2846       H  0.74117518  0.82012110  0.22373587     0.08600
H2847       H  0.72753217  0.83912622  0.20725991     0.08600
H2848       H  0.72821715  0.82006448  0.16887700     0.05400
loop_ 
_geom_bond_atom_site_label_1 
_geom_bond_atom_site_label_2 
_geom_bond_distance 
_geom_bond_site_symmetry_2 
_ccdc_geom_bond_type 
C1            C2   1.556       .  S
C1            C7   1.530       .  S
C1            C5   1.538       .  S
C1         C2834   1.542       .  S
C2            H9   1.084       .  S
C2            C3   1.375       .  D
C3            C4   1.545       .  S
C3         C2802   1.501       .  S
C4            C8   1.530       .  S
C4            C6   1.540       .  S
C4           H10   1.107       .  S
C5           H11   1.081       .  S
C5            C6   1.363       .  D
C6         C2786   1.484       .  S
C7           H12   1.088       .  S
C7            C8   1.355       .  D
C8         C2821   1.477       .  S
C13          C14   1.542       .  S
C13          C19   1.536       .  S
C13          C17   1.541       .  S
C13        C2738   1.549       .  S
C14          H21   1.087       .  S
C14          C15   1.361       .  D
C15          C16   1.537       .  S
C15        C2770   1.494       .  S
C16          C20   1.554       .  S
C16          C18   1.553       .  S
C16          H22   1.106       .  S
C17          H23   1.071       .  S
C17          C18   1.369       .  D
C18        C2837   1.501       .  S
C19          H24   1.087       .  S
C19          C20   1.365       .  D
C20        C2754   1.502       .  S
C25          C26   1.535       .  S
C25          C31   1.545       .  S
C25          C29   1.544       .  S
C25        C2690   1.544       .  S
C26          H33   1.084       .  S
C26          C27   1.370       .  D
C27          C28   1.549       .  S
C27        C2722   1.499       .  S
C28          C32   1.542       .  S
C28          C30   1.524       .  S
C28          H34   1.109       .  S
C29          H35   1.086       .  S
C29          C30   1.362       .  D
C30        C2818   1.476       .  S
C31          H36   1.081       .  S
C31          C32   1.364       .  D
C32        C2706   1.486       .  S
C37          C38   1.527       .  S
C37          C43   1.549       .  S
C37          C41   1.531       .  S
C37        C2661   1.539       .  S
C38          H45   1.087       .  S
C38          C39   1.365       .  D
C39          C40   1.552       .  S
C39        C2725   1.496       .  S
C40          C44   1.552       .  S
C40          C42   1.541       .  S
C40          H46   1.105       .  S
C41          H47   1.087       .  S
C41          C42   1.357       .  D
C42        C2773   1.488       .  S
C43          H48   1.081       .  S
C43          C44   1.376       .  D
C44        C2674   1.502       .  S
C49          C50   1.542       .  S
C49          C55   1.532       .  S
C49          C53   1.544       .  S
C49        C2610   1.550       .  S
C50          H57   1.087       .  S
C50          C51   1.361       .  D
C51          C52   1.527       .  S
C51        C2626   1.483       .  S
C52          C56   1.542       .  S
C52          C54   1.549       .  S
C52          H58   1.109       .  S
C53          H59   1.077       .  S
C53          C54   1.368       .  D
C54        C2642   1.497       .  S
C55          H60   1.083       .  S
C55          C56   1.369       .  D
C56        C2709   1.483       .  S
C61          C62   1.558       .  S
C61          C67   1.534       .  S
C61          C65   1.537       .  S
C61        C2645   1.546       .  S
C62          H69   1.084       .  S
C62          C63   1.366       .  D
C63          C64   1.530       .  S
C63        C2677   1.483       .  S
C64          C68   1.537       .  S
C64          C66   1.542       .  S
C64          H70   1.110       .  S
C65          H71   1.080       .  S
C65          C66   1.368       .  D
C66        C2578   1.486       .  S
C67          H72   1.087       .  S
C67          C68   1.361       .  D
C68        C2594   1.492       .  S
C73          C74   1.533       .  S
C73          C79   1.546       .  S
C73          C77   1.542       .  S
C73        C2546   1.545       .  S
C74          H81   1.087       .  S
C74          C75   1.360       .  D
C75          C76   1.548       .  S
C75        C2562   1.490       .  S
C76          C80   1.544       .  S
C76          C78   1.543       .  S
C76          H82   1.108       .  S
C77          H83   1.084       .  S
C77          C78   1.366       .  D
C78        C2597   1.498       .  S
C79          H84   1.079       .  S
C79          C80   1.372       .  D
C80        C2757   1.498       .  S
C85          C86   1.525       .  S
C85          C91   1.538       .  S
C85          C89   1.541       .  S
C85        C2530   1.539       .  S
C86          H93   1.086       .  S
C86          C87   1.368       .  D
C87          C88   1.554       .  S
C87        C2565   1.498       .  S
C88          C92   1.551       .  S
C88          C90   1.535       .  S
C88          H94   1.109       .  S
C89          H95   1.086       .  S
C89          C90   1.359       .  D
C90        C2629   1.479       .  S
C91          H96   1.082       .  S
C91          C92   1.373       .  D
C92        C2805   1.503       .  S
O97         C100   1.265       .  A
O97        Cd102   2.464       .  S
C98         O107   1.264       .  A
C98         O103   1.265       .  A
C98        C2482   1.485       .  S
O99         C105   1.265       .  A
O99        Cd102   2.493       .  S
C100        O108   1.264       .  A
C100       C2693   1.491       .  S
C101        O106   1.266       .  A
C101        O104   1.264       .  A
C101       C2514   1.489       .  S
Cd102       O109   2.463       .  S
Cd102       O108   2.480       .  S
Cd102       O107   2.485       .  S
Cd102       O103   2.451       .  S
Cd102       O106   2.449       .  S
Cd102       O104   2.456       .  S
C105        O109   1.264       .  A
C105       C2498   1.492       .  S
O110        C113   1.263       .  A
O110       Cd115   2.457       .  S
C111        O120   1.268       .  A
C111        O116   1.266       .  A
C111       C2437   1.492       .  S
O112        C118   1.266       .  A
O112       Cd115   2.494       .  S
C113        O121   1.265       .  A
C113       C2450   1.487       .  S
C114        O119   1.265       .  A
C114        O117   1.264       .  A
C114       C2517   1.491       .  S
Cd115       O122   2.457       .  S
Cd115       O121   2.455       .  S
Cd115       O120   2.485       .  S
Cd115       O116   2.420       .  S
Cd115       O119   2.477       .  S
Cd115       O117   2.455       .  S
C118        O122   1.261       .  A
C118       C2466   1.493       .  S
O123        C126   1.264       .  A
O123       Cd128   2.439       .  S
C124        O133   1.266       .  A
C124        O129   1.265       .  A
C124       C2402   1.490       .  S
O125        C131   1.266       .  A
O125       Cd128   2.488       .  S
C126        O134   1.267       .  A
C126       C2386   1.495       .  S
C127        O132   1.265       .  A
C127        O130   1.264       .  A
C127       C2418   1.495       .  S
Cd128       O135   2.443       .  S
Cd128       O134   2.494       .  S
Cd128       O133   2.456       .  S
Cd128       O129   2.480       .  S
Cd128       O132   2.488       .  S
Cd128       O130   2.474       .  S
C131        O135   1.264       .  A
C131       C2469   1.485       .  S
O136        C139   1.267       .  A
O136       Cd141   2.490       .  S
C137        O146   1.266       .  A
C137        O142   1.266       .  A
C137       C2341   1.493       .  S
O138        C144   1.260       .  A
O138       Cd141   2.452       .  S
C139        O147   1.263       .  A
C139       C2354   1.493       .  S
C140        O145   1.264       .  A
C140        O143   1.265       .  A
C140       C2421   1.496       .  S
Cd141       O148   2.525       .  S
Cd141       O147   2.448       .  S
Cd141       O146   2.485       .  S
Cd141       O142   2.450       .  S
Cd141       O145   2.490       .  S
Cd141       O143   2.487       .  S
C144        O148   1.266       .  A
C144       C2370   1.496       .  S
O149        C152   1.265       .  A
O149       Cd154   2.468       .  S
C150        O159   1.262       .  A
C150        O155   1.267       .  A
C150       C2274   1.480       .  S
O151        C157   1.267       .  A
O151       Cd154   2.490       .  S
C152        O160   1.265       .  A
C152       C2290   1.491       .  S
C153        O158   1.266       .  A
C153        O156   1.263       .  A
C153       C2322   1.489       .  S
Cd154       O161   2.444       .  S
Cd154       O160   2.450       .  S
Cd154       O159   2.442       .  S
Cd154       O155   2.498       .  S
Cd154       O158   2.482       .  S
Cd154       O156   2.473       .  S
C157        O161   1.264       .  A
C157       C2306   1.489       .  S
O162        C165   1.265       .  A
O162       Cd167   2.468       .  S
C163        O172   1.266       .  A
C163        O168   1.264       .  A
C163       C2242   1.489       .  S
O164        C170   1.263       .  A
O164       Cd167   2.468       .  S
C165        O173   1.267       .  A
C165       C2258   1.492       .  S
C166        O171   1.263       .  A
C166        O169   1.265       .  A
C166       C2373   1.489       .  S
Cd167       O174   2.486       .  S
Cd167       O173   2.456       .  S
Cd167       O172   2.461       .  S
Cd167       O168   2.465       .  S
Cd167       O171   2.461       .  S
Cd167       O169   2.507       .  S
C170        O174   1.265       .  A
C170       C2325   1.495       .  S
O175        C178   1.267       .  A
O175       Cd180   2.493       .  S
C176        O185   1.265       .  A
C176        O181   1.264       .  A
C176       C2210   1.493       .  S
O177        C183   1.265       .  A
O177       Cd180   2.476       .  S
C178        O186   1.263       .  A
C178       C2789   1.484       .  S
C179        O184   1.268       .  A
C179        O182   1.263       .  A
C179       C2501   1.484       .  S
Cd180       O187   2.468       .  S
Cd180       O186   2.434       .  S
Cd180       O185   2.457       .  S
Cd180       O181   2.485       .  S
Cd180       O184   2.492       .  S
Cd180       O182   2.445       .  S
C183        O187   1.265       .  A
C183       C2226   1.494       .  S
O188        C191   1.266       .  A
O188       Cd193   2.446       .  S
C189        O198   1.263       .  A
C189        O194   1.267       .  A
C189       C2197   1.492       .  S
O190        C196   1.265       .  A
O190       Cd193   2.485       .  S
C191        O199   1.267       .  A
C191       C2178   1.496       .  S
C192        O197   1.266       .  A
C192        O195   1.264       .  A
C192       C2229   1.491       .  S
Cd193       O200   2.465       .  S
Cd193       O199   2.490       .  S
Cd193       O198   2.455       .  S
Cd193       O194   2.474       .  S
Cd193       O197   2.477       .  S
Cd193       O195   2.475       .  S
C196        O200   1.261       .  A
C196       C2309   1.493       .  S
O201        C204   1.262       .  A
O201       Cd206   2.432       .  S
C202        O211   1.263       .  A
C202        O207   1.266       .  A
C202       C2213   1.489       .  S
O203        C209   1.268       .  A
O203       Cd206   2.502       .  S
C204        O212   1.268       .  A
C204       C2533   1.488       .  S
C205        O210   1.264       .  A
C205        O208   1.264       .  A
C205       C2162   1.492       .  S
Cd206       O213   2.440       .  S
Cd206       O212   2.496       .  S
Cd206       O211   2.454       .  S
Cd206       O207   2.493       .  S
Cd206       O210   2.495       .  S
Cd206       O208   2.458       .  S
C209        O213   1.262       .  A
C209       C2146   1.488       .  S
O214        C217   1.264       .  A
O214       Cd219   2.428       .  S
C215        O224   1.266       .  A
C215        O220   1.264       .  A
C215       C2194   1.491       .  S
O216        C222   1.266       .  A
O216       Cd219   2.475       .  S
C217        O225   1.267       .  A
C217       C2117   1.492       .  S
C218        O223   1.261       .  A
C218        O221   1.266       .  A
C218       C2133   1.480       .  S
Cd219       O226   2.459       .  S
Cd219       O225   2.493       .  S
Cd219       O224   2.464       .  S
Cd219       O220   2.452       .  S
Cd219       O223   2.429       .  S
Cd219       O221   2.494       .  S
C222        O226   1.263       .  A
C222       C2165   1.490       .  S
O227        C230   1.266       .  A
O227       Cd232   2.486       .  S
C228        O237   1.262       .  A
C228        O233   1.270       .  A
C228       C2405   1.493       .  S
O229        C235   1.265       .  A
O229       Cd232   2.485       .  S
C230        O238   1.264       .  A
C230       C2066   1.484       .  S
C231        O236   1.268       .  A
C231        O234   1.262       .  A
C231       C2082   1.479       .  S
Cd232       O239   2.470       .  S
Cd232       O238   2.455       .  S
Cd232       O237   2.414       .  S
Cd232       O233   2.502       .  S
Cd232       O236   2.499       .  S
Cd232       O234   2.421       .  S
C235        O239   1.266       .  A
C235       C2098   1.496       .  S
O240        C243   1.263       .  A
O240       Cd245   2.450       .  S
C241        O250   1.266       .  A
C241        O246   1.266       .  A
C241       C2357   1.492       .  S
O242        C248   1.269       .  A
O242       Cd245   2.522       .  S
C243        O251   1.268       .  A
C243       C2034   1.492       .  S
C244        O249   1.266       .  A
C244        O247   1.263       .  A
C244       C2101   1.498       .  S
Cd245       O252   2.422       .  S
Cd245       O251   2.471       .  S
Cd245       O250   2.438       .  S
Cd245       O246   2.478       .  S
Cd245       O249   2.494       .  S
Cd245       O247   2.484       .  S
C248        O252   1.263       .  A
C248       C2050   1.496       .  S
O253        C256   1.263       .  A
O253       Cd258   2.448       .  S
C254        O263   1.263       .  A
C254        O259   1.267       .  A
C254       C2293   1.491       .  S
O255        C261   1.263       .  A
O255       Cd258   2.443       .  S
C256        O264   1.268       .  A
C256       C2005   1.483       .  S
C257        O262   1.265       .  A
C257        O260   1.265       .  A
C257       C2018   1.493       .  S
Cd258       O265   2.505       .  S
Cd258       O264   2.494       .  S
Cd258       O263   2.443       .  S
Cd258       O259   2.478       .  S
Cd258       O262   2.482       .  S
Cd258       O260   2.480       .  S
C261        O265   1.265       .  A
C261       C2130   1.489       .  S
O266        C269   1.268       .  A
O266       Cd271   2.487       .  S
C267        O276   1.266       .  A
C267        O272   1.265       .  A
C267       C1989   1.486       .  S
O268        C274   1.270       .  A
O268       Cd271   2.529       .  S
C269        O277   1.263       .  A
C269       C2261   1.490       .  S
C270        O275   1.268       .  A
C270        O273   1.262       .  A
C270       C2021   1.498       .  S
Cd271       O278   2.427       .  S
Cd271       O277   2.426       .  S
Cd271       O276   2.478       .  S
Cd271       O272   2.445       .  S
Cd271       O275   2.503       .  S
Cd271       O273   2.457       .  S
C274        O278   1.262       .  A
C274       C2053   1.495       .  S
O279        C282   1.265       .  A
O279       Cd284   2.459       .  S
C280        O289   1.266       .  A
C280        O285   1.264       .  A
C280       C2613   1.498       .  S
O281        C287   1.264       .  A
O281       Cd284   2.484       .  S
C282        O290   1.266       .  A
C282       C2485   1.491       .  S
C283        O288   1.263       .  A
C283        O286   1.265       .  A
C283       C1970   1.492       .  S
Cd284       O291   2.453       .  S
Cd284       O290   2.483       .  S
Cd284       O289   2.480       .  S
Cd284       O285   2.477       .  S
Cd284       O288   2.485       .  S
Cd284       O286   2.461       .  S
C287        O291   1.264       .  A
C287       C2149   1.483       .  S
O292        C295   1.264       .  A
O292       Cd297   2.464       .  S
C293        O302   1.264       .  A
C293        O298   1.267       .  A
C293       C2453   1.491       .  S
O294        C300   1.264       .  A
O294       Cd297   2.490       .  S
C295        O303   1.266       .  A
C295       C1957   1.487       .  S
C296        O301   1.265       .  A
C296        O299   1.263       .  A
C296       C1973   1.490       .  S
Cd297       O304   2.446       .  S
Cd297       O303   2.449       .  S
Cd297       O302   2.442       .  S
Cd297       O298   2.472       .  S
Cd297       O301   2.468       .  S
Cd297       O299   2.453       .  S
C300        O304   1.263       .  A
C300       C2085   1.489       .  S
C305        C306   1.536       .  S
C305        C311   1.551       .  S
C305        C309   1.540       .  S
C305       C2338   1.553       .  S
C306        H313   1.087       .  S
C306        C307   1.361       .  D
C307        C308   1.537       .  S
C307       C1922   1.488       .  S
C308        C312   1.551       .  S
C308        C310   1.550       .  S
C308        H314   1.108       .  S
C309        H315   1.080       .  S
C309        C310   1.368       .  D
C310       C1941   1.498       .  S
C311        H316   1.083       .  S
C311        C312   1.370       .  D
C312       C1906   1.508       .  S
C317        C318   1.539       .  S
C317        C323   1.546       .  S
C317        C321   1.540       .  S
C317       C1858   1.549       .  S
C318        H325   1.087       .  S
C318        C319   1.362       .  D
C319        C320   1.534       .  S
C319       C1890   1.489       .  S
C320        C324   1.543       .  S
C320        C322   1.553       .  S
C320        H326   1.107       .  S
C321        H327   1.080       .  S
C321        C322   1.371       .  D
C322       C1938   1.502       .  S
C323        H328   1.080       .  S
C323        C324   1.365       .  D
C324       C1877   1.494       .  S
C329        C330   1.547       .  S
C329        C335   1.531       .  S
C329        C333   1.536       .  S
C329       C2245   1.542       .  S
C330        H337   1.077       .  S
C330        C331   1.369       .  D
C331        C332   1.542       .  S
C331       C1842   1.492       .  S
C332        C336   1.551       .  S
C332        C334   1.535       .  S
C332        H338   1.094       .  S
C333        H339   1.087       .  S
C333        C334   1.360       .  D
C334       C1925   1.491       .  S
C335        H340   1.083       .  S
C335        C336   1.371       .  D
C336       C1826   1.511       .  S
C341        C342   1.543       .  S
C341        C347   1.539       .  S
C341        C345   1.537       .  S
C341       C1794   1.542       .  S
C342        H349   1.080       .  S
C342        C343   1.370       .  D
C343        C344   1.543       .  S
C343       C1845   1.485       .  S
C344        C348   1.536       .  S
C344        C346   1.535       .  S
C344        H350   1.111       .  S
C345        H351   1.084       .  S
C345        C346   1.356       .  D
C346       C1893   1.488       .  S
C347        H352   1.083       .  S
C347        C348   1.367       .  D
C348       C1810   1.479       .  S
C353        C354   1.549       .  S
C353        C359   1.530       .  S
C353        C357   1.536       .  S
C353       C2037   1.543       .  S
C354        H361   1.080       .  S
C354        C355   1.370       .  D
C355        C356   1.551       .  S
C355       C1778   1.502       .  S
C356        C360   1.560       .  S
C356        C358   1.546       .  S
C356        H362   1.107       .  S
C357        H363   1.086       .  S
C357        C358   1.363       .  D
C358       C1762   1.499       .  S
C359        H364   1.086       .  S
C359        C360   1.363       .  D
C360       C1909   1.502       .  S
C365        C366   1.542       .  S
C365        C371   1.529       .  S
C365        C369   1.542       .  S
C365       C1730   1.545       .  S
C366        H373   1.077       .  S
C366        C367   1.369       .  D
C367        C368   1.548       .  S
C367       C1781   1.493       .  S
C368        C372   1.551       .  S
C368        C370   1.536       .  S
C368        H374   1.105       .  S
C369        H375   1.087       .  S
C369        C370   1.365       .  D
C370       C1746   1.492       .  S
C371        H376   1.087       .  S
C371        C372   1.366       .  D
C372       C1874   1.492       .  S
C377        C378   1.523       .  S
C377        C383   1.545       .  S
C377        C381   1.541       .  S
C377       C1986   1.541       .  S
C378        H385   1.085       .  S
C378        C379   1.367       .  D
C379        C380   1.561       .  S
C379       C1829   1.506       .  S
C380        C384   1.542       .  S
C380        C382   1.552       .  S
C380        H386   1.106       .  S
C381        H387   1.087       .  S
C381        C382   1.367       .  D
C382       C1765   1.510       .  S
C383        H388   1.083       .  S
C383        C384   1.365       .  D
C384       C1714   1.487       .  S
C389        C390   1.539       .  S
C389        C395   1.531       .  S
C389        C393   1.553       .  S
C389       C1698   1.545       .  S
C390        H397   1.086       .  S
C390        C391   1.366       .  D
C391        C392   1.537       .  S
C391       C1749   1.488       .  S
C392        C396   1.547       .  S
C392        C394   1.543       .  S
C392        H398   1.108       .  S
C393        H399   1.081       .  S
C393        C394   1.372       .  D
C394       C1717   1.499       .  S
C395        H400   1.087       .  S
C395        C396   1.359       .  D
C396       C1813   1.487       .  S
C401        C402   1.529       .  S
C401        C407   1.543       .  S
C401        C405   1.542       .  S
C401       C2434   1.549       .  S
C402        H409   1.088       .  S
C402        C403   1.356       .  D
C403        C404   1.535       .  S
C403       C1666   1.481       .  S
C404        C408   1.552       .  S
C404        C406   1.550       .  S
C404        H410   1.105       .  S
C405        H411   1.077       .  S
C405        C406   1.371       .  D
C406       C1682   1.502       .  S
C407        H412   1.084       .  S
C407        C408   1.372       .  D
C408       C1650   1.506       .  S
C413        C414   1.537       .  S
C413        C419   1.536       .  S
C413        C417   1.549       .  S
C413       C1602   1.545       .  S
C414        H421   1.087       .  S
C414        C415   1.359       .  D
C415        C416   1.527       .  S
C415       C1634   1.478       .  S
C416        C420   1.544       .  S
C416        C418   1.547       .  S
C416        H422   1.109       .  S
C417        H423   1.077       .  S
C417        C418   1.370       .  D
C418       C1685   1.495       .  S
C419        H424   1.081       .  S
C419        C420   1.366       .  D
C420       C1621   1.494       .  S
C425        C426   1.538       .  S
C425        C431   1.554       .  S
C425        C429   1.530       .  S
C425       C1554   1.549       .  S
C426        H433   1.084       .  S
C426        C427   1.367       .  D
C427        C428   1.545       .  S
C427       C1586   1.497       .  S
C428        C432   1.550       .  S
C428        C430   1.533       .  S
C428        H434   1.105       .  S
C429        H435   1.087       .  S
C429        C430   1.356       .  D
C430       C1637   1.476       .  S
C431        H436   1.081       .  S
C431        C432   1.379       .  D
C432       C1573   1.512       .  S
C437        C438   1.542       .  S
C437        C443   1.551       .  S
C437        C441   1.539       .  S
C437       C2389   1.554       .  S
C438        H445   1.081       .  S
C438        C439   1.370       .  D
C439        C440   1.547       .  S
C439       C1589   1.503       .  S
C440        C444   1.547       .  S
C440        C442   1.533       .  S
C440        H446   1.102       .  S
C441        H447   1.087       .  S
C441        C442   1.362       .  D
C442       C1669   1.485       .  S
C443        H448   1.080       .  S
C443        C444   1.371       .  D
C444       C1538   1.510       .  S
C449        C450   1.543       .  S
C449        C455   1.535       .  S
C449        C453   1.528       .  S
C449       C1954   1.538       .  S
C450        H457   1.077       .  S
C450        C451   1.376       .  D
C451        C452   1.563       .  S
C451       C1522   1.520       .  S
C452        C456   1.542       .  S
C452        C454   1.542       .  S
C452        H458   1.105       .  S
C453        H459   1.087       .  S
C453        C454   1.357       .  D
C454       C1506   1.477       .  S
C455        H460   1.086       .  S
C455        C456   1.364       .  D
C456       C1653   1.495       .  S
C461        C462   1.544       .  S
C461        C467   1.532       .  S
C461        C465   1.539       .  S
C461       C1474   1.549       .  S
C462        H469   1.081       .  S
C462        C463   1.366       .  D
C463        C464   1.552       .  S
C463       C1525   1.490       .  S
C464        C468   1.550       .  S
C464        C466   1.538       .  S
C464        H470   1.102       .  S
C465        H471   1.087       .  S
C465        C466   1.371       .  D
C466       C1490   1.499       .  S
C467        H472   1.084       .  S
C467        C468   1.363       .  D
C468       C1618   1.502       .  S
C473        C474   1.555       .  S
C473        C479   1.533       .  S
C473        C477   1.532       .  S
C473       C1442   1.550       .  S
C474        H481   1.080       .  S
C474        C475   1.375       .  D
C475        C476   1.546       .  S
C475       C1570   1.503       .  S
C476        C480   1.550       .  S
C476        C478   1.535       .  S
C476        H482   1.110       .  S
C477        H483   1.086       .  S
C477        C478   1.361       .  D
C478       C1493   1.486       .  S
C479        H484   1.084       .  S
C479        C480   1.363       .  D
C480       C1458   1.492       .  S
C485        C486   1.530       .  S
C485        C491   1.543       .  S
C485        C489   1.540       .  S
C485       C2069   1.541       .  S
C486        H493   1.085       .  S
C486        C487   1.366       .  D
C487        C488   1.547       .  S
C487       C1541   1.499       .  S
C488        C492   1.555       .  S
C488        C490   1.540       .  S
C488        H494   1.108       .  S
C489        H495   1.086       .  S
C489        C490   1.359       .  D
C490       C1509   1.480       .  S
C491        H496   1.083       .  S
C491        C492   1.375       .  D
C492       C1461   1.513       .  S
O497        C500   1.267       .  A
O497       Cd502   2.463       .  S
C498        O507   1.265       .  A
C498        O503   1.264       .  A
C498       C1378   1.486       .  S
O499        C505   1.265       .  A
O499       Cd502   2.504       .  S
C500        O508   1.265       .  A
C500       C1394   1.488       .  S
C501        O506   1.266       .  A
C501        O504   1.262       .  A
C501       C1426   1.488       .  S
Cd502       O509   2.454       .  S
Cd502       O508   2.458       .  S
Cd502       O507   2.451       .  S
Cd502       O503   2.469       .  S
Cd502       O506   2.462       .  S
Cd502       O504   2.462       .  S
C505        O509   1.263       .  A
C505       C1410   1.488       .  S
O510        C513   1.266       .  A
O510       Cd515   2.452       .  S
C511        O520   1.267       .  A
C511        O516   1.266       .  A
C511       C1346   1.494       .  S
O512        C518   1.264       .  A
O512       Cd515   2.477       .  S
C513        O521   1.264       .  A
C513       C2658   1.491       .  S
C514        O519   1.263       .  A
C514        O517   1.264       .  A
C514       C1429   1.488       .  S
Cd515       O522   2.469       .  S
Cd515       O521   2.475       .  S
Cd515       O520   2.465       .  S
Cd515       O516   2.461       .  S
Cd515       O519   2.453       .  S
Cd515       O517   2.455       .  S
C518        O522   1.263       .  A
C518       C1362   1.480       .  S
O523        C526   1.265       .  A
O523       Cd528   2.436       .  S
C524        O533   1.263       .  A
C524        O529   1.267       .  A
C524       C1298   1.489       .  S
O525        C531   1.269       .  A
O525       Cd528   2.511       .  S
C526        O534   1.267       .  A
C526       C1557   1.485       .  S
C527        O532   1.267       .  A
C527        O530   1.262       .  A
C527       C1330   1.490       .  S
Cd528       O535   2.435       .  S
Cd528       O534   2.509       .  S
Cd528       O533   2.449       .  S
Cd528       O529   2.464       .  S
Cd528       O532   2.480       .  S
Cd528       O530   2.442       .  S
C531        O535   1.261       .  A
C531       C1314   1.488       .  S
O536        C539   1.267       .  A
O536       Cd541   2.465       .  S
C537        O546   1.264       .  A
C537        O542   1.266       .  A
C537       C2741   1.489       .  S
O538        C544   1.264       .  A
O538       Cd541   2.487       .  S
C539        O547   1.264       .  A
C539       C1282   1.484       .  S
C540        O545   1.264       .  A
C540        O543   1.265       .  A
C540       C1333   1.485       .  S
Cd541       O548   2.456       .  S
Cd541       O547   2.457       .  S
Cd541       O546   2.465       .  S
Cd541       O542   2.457       .  S
Cd541       O545   2.458       .  S
Cd541       O543   2.450       .  S
C544        O548   1.263       .  A
C544       C1365   1.491       .  S
O549        C552   1.264       .  A
O549       Cd554   2.468       .  S
C550        O559   1.263       .  A
C550        O555   1.266       .  A
C550       C1234   1.484       .  S
O551        C557   1.267       .  A
O551       Cd554   2.500       .  S
C552        O560   1.268       .  A
C552       C1797   1.490       .  S
C553        O558   1.266       .  A
C553        O556   1.263       .  A
C553       C1266   1.486       .  S
Cd554       O561   2.488       .  S
Cd554       O560   2.463       .  S
Cd554       O559   2.443       .  S
Cd554       O555   2.465       .  S
Cd554       O558   2.491       .  S
Cd554       O556   2.452       .  S
C557        O561   1.262       .  A
C557       C1250   1.499       .  S
O562        C565   1.263       .  A
O562       Cd567   2.450       .  S
C563        O572   1.266       .  A
C563        O568   1.265       .  A
C563       C1605   1.492       .  S
O564        C570   1.265       .  A
O564       Cd567   2.494       .  S
C565        O573   1.267       .  A
C565       C1221   1.491       .  S
C566        O571   1.265       .  A
C566        O569   1.264       .  A
C566       C1269   1.494       .  S
Cd567       O574   2.452       .  S
Cd567       O573   2.471       .  S
Cd567       O572   2.444       .  S
Cd567       O568   2.481       .  S
Cd567       O571   2.467       .  S
Cd567       O569   2.482       .  S
C570        O574   1.263       .  A
C570       C1317   1.493       .  S
O575        C578   1.264       .  A
O575       Cd580   2.449       .  S
C576        O585   1.264       .  A
C576        O581   1.269       .  A
C576       C1189   1.496       .  S
O577        C583   1.268       .  A
O577       Cd580   2.533       .  S
C578        O586   1.266       .  A
C578       C1170   1.488       .  S
C579        O584   1.266       .  A
C579        O582   1.265       .  A
C579       C1202   1.497       .  S
Cd580       O587   2.417       .  S
Cd580       O586   2.516       .  S
Cd580       O585   2.448       .  S
Cd580       O581   2.496       .  S
Cd580       O584   2.478       .  S
Cd580       O582   2.487       .  S
C583        O587   1.259       .  A
C583       C1413   1.489       .  S
O588        C591   1.264       .  A
O588       Cd593   2.471       .  S
C589        O598   1.267       .  A
C589        O594   1.265       .  A
C589       C1861   1.489       .  S
O590        C596   1.264       .  A
O590       Cd593   2.494       .  S
C591        O599   1.267       .  A
C591       C1157   1.492       .  S
C592        O597   1.264       .  A
C592        O595   1.264       .  A
C592       C1205   1.496       .  S
Cd593       O600   2.492       .  S
Cd593       O599   2.459       .  S
Cd593       O598   2.484       .  S
Cd593       O594   2.433       .  S
Cd593       O597   2.482       .  S
Cd593       O595   2.490       .  S
C596        O600   1.264       .  A
C596       C1253   1.497       .  S
O601        C604   1.267       .  A
O601       Cd606   2.471       .  S
C602        O611   1.263       .  A
C602        O607   1.269       .  A
C602       C1154   1.493       .  S
O603        C609   1.267       .  A
O603       Cd606   2.521       .  S
C604        O612   1.265       .  A
C604       C1733   1.491       .  S
C605        O610   1.267       .  A
C605        O608   1.262       .  A
C605       C1138   1.495       .  S
Cd606       O613   2.447       .  S
Cd606       O612   2.463       .  S
Cd606       O611   2.438       .  S
Cd606       O607   2.486       .  S
Cd606       O610   2.479       .  S
Cd606       O608   2.466       .  S
C609        O613   1.263       .  A
C609       C1122   1.488       .  S
O614        C617   1.266       .  A
O614       Cd619   2.465       .  S
C615        O624   1.266       .  A
C615        O620   1.265       .  A
C615       C1090   1.489       .  S
O616        C622   1.266       .  A
O616       Cd619   2.521       .  S
C617        O625   1.267       .  A
C617       C1186   1.495       .  S
C618        O623   1.264       .  A
C618        O621   1.264       .  A
C618       C1141   1.496       .  S
Cd619       O626   2.448       .  S
Cd619       O625   2.472       .  S
Cd619       O624   2.488       .  S
Cd619       O620   2.437       .  S
Cd619       O623   2.486       .  S
Cd619       O621   2.486       .  S
C622        O626   1.260       .  A
C622       C1106   1.498       .  S
O627        C630   1.263       .  A
O627       Cd632   2.462       .  S
C628        O637   1.264       .  A
C628        O633   1.267       .  A
C628       C1218   1.489       .  S
O629        C635   1.265       .  A
O629       Cd632   2.506       .  S
C630        O638   1.268       .  A
C630       C1477   1.489       .  S
C631        O636   1.264       .  A
C631        O634   1.264       .  A
C631       C1074   1.496       .  S
Cd632       O639   2.465       .  S
Cd632       O638   2.487       .  S
Cd632       O637   2.445       .  S
Cd632       O633   2.472       .  S
Cd632       O636   2.480       .  S
Cd632       O634   2.479       .  S
C635        O639   1.263       .  A
C635       C1058   1.484       .  S
O640        C643   1.265       .  A
O640       Cd645   2.467       .  S
C641        O650   1.268       .  A
C641        O646   1.264       .  A
C641       C1701   1.489       .  S
O642        C648   1.266       .  A
O642       Cd645   2.515       .  S
C643        O651   1.266       .  A
C643       C1237   1.488       .  S
C644        O649   1.265       .  A
C644        O647   1.263       .  A
C644       C1077   1.496       .  S
Cd645       O652   2.460       .  S
Cd645       O651   2.455       .  S
Cd645       O650   2.461       .  S
Cd645       O646   2.466       .  S
Cd645       O649   2.474       .  S
Cd645       O647   2.497       .  S
C648        O652   1.261       .  A
C648       C1125   1.498       .  S
O653        C656   1.269       .  A
O653       Cd658   2.476       .  S
C654        O663   1.266       .  A
C654        O659   1.268       .  A
C654       C2581   1.498       .  S
O655        C661   1.265       .  A
O655       Cd658   2.507       .  S
C656        O664   1.264       .  A
C656       C1349   1.493       .  S
C657        O662   1.267       .  A
C657        O660   1.263       .  A
C657       C1042   1.501       .  S
Cd658       O665   2.481       .  S
Cd658       O664   2.446       .  S
Cd658       O663   2.449       .  S
Cd658       O659   2.517       .  S
Cd658       O662   2.526       .  S
Cd658       O660   2.469       .  S
C661        O665   1.264       .  A
C661       C1026   1.500       .  S
O666        C669   1.262       .  A
O666       Cd671   2.443       .  S
C667        O676   1.266       .  A
C667        O672   1.265       .  A
C667       C1397   1.485       .  S
O668        C674   1.268       .  A
O668       Cd671   2.516       .  S
C669        O677   1.268       .  A
C669       C1013   1.490       .  S
C670        O675   1.266       .  A
C670        O673   1.262       .  A
C670       C1045   1.502       .  S
Cd671       O678   2.444       .  S
Cd671       O677   2.516       .  S
Cd671       O676   2.451       .  S
Cd671       O672   2.456       .  S
Cd671       O675   2.520       .  S
Cd671       O673   2.479       .  S
C674        O678   1.263       .  A
C674       C1109   1.495       .  S
O679        C682   1.262       .  A
O679       Cd684   2.453       .  S
C680        O689   1.266       .  A
C680        O685   1.262       .  A
C680       C1285   1.492       .  S
O681        C687   1.267       .  A
O681       Cd684   2.497       .  S
C682        O690   1.267       .  A
C682       C2549   1.489       .  S
C683        O688   1.264       .  A
C683        O686   1.266       .  A
C683        C994   1.495       .  S
Cd684       O691   2.473       .  S
Cd684       O690   2.513       .  S
Cd684       O689   2.495       .  S
Cd684       O685   2.444       .  S
Cd684       O688   2.475       .  S
Cd684       O686   2.473       .  S
C687        O691   1.263       .  A
C687       C1029   1.498       .  S
O692        C695   1.264       .  A
O692       Cd697   2.473       .  S
C693        O702   1.268       .  A
C693        O698   1.266       .  A
C693       C1445   1.496       .  S
O694        C700   1.267       .  A
O694       Cd697   2.503       .  S
C695        O703   1.264       .  A
C695       C1301   1.486       .  S
C696        O701   1.265       .  A
C696        O699   1.261       .  A
C696        C997   1.492       .  S
Cd697       O704   2.452       .  S
Cd697       O703   2.450       .  S
Cd697       O702   2.499       .  S
Cd697       O698   2.443       .  S
Cd697       O701   2.494       .  S
Cd697       O699   2.458       .  S
C700        O704   1.262       .  A
C700       C1061   1.493       .  S
C705        C706   1.538       .  S
C705        C711   1.552       .  S
C705        C709   1.539       .  S
C705       C2181   1.552       .  S
C706        H713   1.084       .  S
C706        C707   1.363       .  D
C707        C708   1.546       .  S
C707        C981   1.497       .  S
C708        C712   1.545       .  S
C708        C710   1.539       .  S
C708        H714   1.109       .  S
C709        H715   1.084       .  S
C709        C710   1.367       .  D
C710        C965   1.493       .  S
C711        H716   1.080       .  S
C711        C712   1.373       .  D
C712        C946   1.501       .  S
C717        C718   1.541       .  S
C717        C723   1.542       .  S
C717        C721   1.553       .  S
C717        C978   1.555       .  S
C718        H725   1.079       .  S
C718        C719   1.368       .  D
C719        C720   1.543       .  S
C719       C1173   1.488       .  S
C720        C724   1.540       .  S
C720        C722   1.539       .  S
C720        H726   1.109       .  S
C721        H727   1.086       .  S
C721        C722   1.373       .  D
C722        C917   1.507       .  S
C723        H728   1.086       .  S
C723        C724   1.363       .  D
C724        C930   1.494       .  S
C729        C730   1.541       .  S
C729        C735   1.539       .  S
C729        C733   1.550       .  S
C729       C1381   1.543       .  S
C730        H737   1.081       .  S
C730        C731   1.363       .  D
C731        C732   1.539       .  S
C731        C933   1.495       .  S
C732        C736   1.533       .  S
C732        C734   1.533       .  S
C732        H738   1.110       .  S
C733        H739   1.080       .  S
C733        C734   1.366       .  D
C734        C898   1.483       .  S
C735        H740   1.081       .  S
C735        C736   1.365       .  D
C736        C885   1.485       .  S
C741        C742   1.542       .  S
C741        C747   1.548       .  S
C741        C745   1.550       .  S
C741        C901   1.552       .  S
C742        H749   1.085       .  S
C742        C743   1.366       .  D
C743        C744   1.541       .  S
C743        C962   1.501       .  S
C744        C748   1.533       .  S
C744        C746   1.523       .  S
C744        H750   1.108       .  S
C745        H751   1.086       .  S
C745        C746   1.364       .  D
C746        C866   1.479       .  S
C747        H752   1.072       .  S
C747        C748   1.366       .  D
C748       C2277   1.477       .  S
C753        C754   1.551       .  S
C753        C759   1.534       .  S
C753        C757   1.536       .  S
C753       C2114   1.549       .  S
C754        H761   1.079       .  S
C754        C755   1.371       .  D
C755        C756   1.551       .  S
C755        C949   1.512       .  S
C756        C760   1.551       .  S
C756        C758   1.542       .  S
C756        H762   1.107       .  S
C757        H763   1.083       .  S
C757        C758   1.361       .  D
C758        C834   1.490       .  S
C759        H764   1.084       .  S
C759        C760   1.366       .  D
C760        C850   1.496       .  S
C765        C766   1.536       .  S
C765        C771   1.551       .  S
C765        C769   1.543       .  S
C765       C1093   1.552       .  S
C766        H773   1.086       .  S
C766        C767   1.363       .  D
C767        C768   1.538       .  S
C767        C818   1.498       .  S
C768        C772   1.543       .  S
C768        C770   1.556       .  S
C768        H774   1.101       .  S
C769        H775   1.080       .  S
C769        C770   1.372       .  D
C770        C853   1.514       .  S
C771        H776   1.080       .  S
C771        C772   1.367       .  D
C772        C914   1.501       .  S
C777        C778   1.536       .  S
C777        C783   1.529       .  S
C777        C781   1.553       .  S
C777        C802   1.542       .  S
C778        H785   1.083       .  S
C778        C779   1.369       .  D
C779        C780   1.545       .  S
C779       C1010   1.492       .  S
C780        C784   1.538       .  S
C780        C782   1.535       .  S
C780        H786   1.104       .  S
C781        H787   1.082       .  S
C781        C782   1.370       .  D
C782        C882   1.483       .  S
C783        H788   1.087       .  S
C783        C784   1.359       .  D
C784        C821   1.496       .  S
C789        C790   1.543       .  S
C789        C795   1.532       .  S
C789        C793   1.542       .  S
C789        C869   1.540       .  S
C790        H797   1.080       .  S
C790        C791   1.371       .  D
C791        C792   1.543       .  S
C791       C2002   1.487       .  S
C792        C796   1.543       .  S
C792        C794   1.532       .  S
C792        H798   1.110       .  S
C793        H799   1.087       .  S
C793        C794   1.358       .  D
C794        C837   1.478       .  S
C795        H800   1.086       .  S
C795        C796   1.368       .  D
C796        C805   1.494       .  S
C801        C802   1.414       .  A
C801        C806   1.408       .  A
C801        H808   1.077       .  S
C802        C803   1.431       .  A
C803        C810   1.516       .  S
C803        C804   1.400       .  A
C804        C805   1.401       .  A
C804        H809   1.083       .  S
C805        C806   1.413       .  A
C806        C807   1.507       .  S
C807        H811   1.110       .  S
C807        H812   1.107       .  S
C807        H813   1.110       .  S
C810        H814   1.106       .  S
C810        H815   1.107       .  S
C810        H816   1.111       .  S
C817        C818   1.412       .  A
C817        C822   1.405       .  A
C817        H824   1.083       .  S
C818        C819   1.417       .  A
C819        C826   1.508       .  S
C819        C820   1.396       .  A
C820        C821   1.407       .  A
C820        H825   1.082       .  S
C821        C822   1.415       .  A
C822        C823   1.507       .  S
C823        H827   1.111       .  S
C823        H828   1.105       .  S
C823        H829   1.110       .  S
C826        H830   1.107       .  S
C826        H831   1.105       .  S
C826        H832   1.111       .  S
C833        C834   1.407       .  A
C833        C838   1.407       .  A
C833        H840   1.084       .  S
C834        C835   1.422       .  A
C835        C842   1.512       .  S
C835        C836   1.400       .  A
C836        C837   1.398       .  A
C836        H841   1.085       .  S
C837        C838   1.409       .  A
C838        C839   1.506       .  S
C839        H843   1.111       .  S
C839        H844   1.111       .  S
C839        H845   1.110       .  S
C842        H846   1.110       .  S
C842        H847   1.107       .  S
C842        H848   1.111       .  S
C849        C850   1.394       .  A
C849        C854   1.408       .  A
C849        H856   1.084       .  S
C850        C851   1.419       .  A
C851        C858   1.503       .  S
C851        C852   1.405       .  A
C852        C853   1.404       .  A
C852        H857   1.083       .  S
C853        C854   1.431       .  A
C854        C855   1.499       .  S
C855        H859   1.111       .  S
C855        H860   1.107       .  S
C855        H861   1.106       .  S
C858        H862   1.104       .  S
C858        H863   1.110       .  S
C858        H864   1.111       .  S
C865        C866   1.401       .  A
C865        C870   1.408       .  A
C865        H872   1.083       .  S
C866        C867   1.406       .  A
C867        C874   1.506       .  S
C867        C868   1.398       .  A
C868        C869   1.413       .  A
C868        H873   1.084       .  S
C869        C870   1.423       .  A
C870        C871   1.505       .  S
C871        H875   1.111       .  S
C871        H876   1.110       .  S
C871        H877   1.109       .  S
C874        H878   1.108       .  S
C874        H879   1.109       .  S
C874        H880   1.111       .  S
C881        C882   1.403       .  A
C881        C886   1.407   1_556  A
C881        H888   1.084       .  S
C882        C883   1.413       .  A
C883        C890   1.506       .  S
C883        C884   1.400   1_556  A
C884        C885   1.402       .  A
C884        H889   1.084       .  S
C885        C886   1.415       .  A
C886        C887   1.506       .  S
C887        H891   1.111       .  S
C887        H892   1.111       .  S
C887        H893   1.107       .  S
C890        H894   1.110       .  S
C890        H895   1.105       .  S
C890        H896   1.111       .  S
C897        C898   1.397       .  A
C897        C902   1.412       .  A
C897        H904   1.085       .  S
C898        C899   1.408       .  A
C899        C906   1.510       .  S
C899        C900   1.399       .  A
C900        C901   1.416       .  A
C900        H905   1.084       .  S
C901        C902   1.432       .  A
C902        C903   1.501       .  S
C903        H907   1.111       .  S
C903        H908   1.109       .  S
C903        H909   1.109       .  S
C906        H910   1.109       .  S
C906        H911   1.108       .  S
C906        H912   1.111       .  S
C913        C914   1.401       .  A
C913        C918   1.409   1_556  A
C913        H920   1.084       .  S
C914        C915   1.416       .  A
C915        C922   1.506       .  S
C915        C916   1.415   1_556  A
C916        C917   1.407       .  A
C916        H921   1.084       .  S
C917        C918   1.421       .  A
C918        C919   1.504       .  S
C919        H923   1.111       .  S
C919        H924   1.110       .  S
C919        H925   1.104       .  S
C922        H926   1.111       .  S
C922        H927   1.108       .  S
C922        H928   1.111       .  S
C929        C930   1.405       .  A
C929        C934   1.405       .  A
C929        H936   1.082       .  S
C930        C931   1.420       .  A
C931        C938   1.511       .  S
C931        C932   1.397       .  A
C932        C933   1.403       .  A
C932        H937   1.083       .  S
C933        C934   1.421       .  A
C934        C935   1.508       .  S
C935        H939   1.111       .  S
C935        H940   1.110       .  S
C935        H941   1.106       .  S
C938        H942   1.105       .  S
C938        H943   1.110       .  S
C938        H944   1.111       .  S
C945        C946   1.404       .  A
C945        C950   1.410       .  A
C945        H952   1.084       .  S
C946        C947   1.413       .  A
C947        C954   1.507       .  S
C947        C948   1.410       .  A
C948        C949   1.410       .  A
C948        H953   1.084       .  S
C949        C950   1.421       .  A
C950        C951   1.502       .  S
C951        H955   1.111       .  S
C951        H956   1.100       .  S
C951        H957   1.107       .  S
C954        H958   1.107       .  S
C954        H959   1.110       .  S
C954        H960   1.111       .  S
C961        C962   1.408       .  A
C961        C966   1.402       .  A
C961        H968   1.080       .  S
C962        C963   1.424       .  A
C963        C970   1.510       .  S
C963        C964   1.401       .  A
C964        C965   1.403       .  A
C964        H969   1.082       .  S
C965        C966   1.416       .  A
C966        C967   1.508       .  S
C967        H971   1.111       .  S
C967        H972   1.110       .  S
C967        H973   1.108       .  S
C970        H974   1.105       .  S
C970        H975   1.111       .  S
C970        H976   1.110       .  S
C977        C978   1.409       .  A
C977        C982   1.400       .  A
C977        H984   1.085       .  S
C978        C979   1.429       .  A
C979        C986   1.504       .  S
C979        C980   1.418       .  A
C980        C981   1.403       .  A
C980        H985   1.084       .  S
C981        C982   1.417       .  A
C982        C983   1.506       .  S
C983        H987   1.111       .  S
C983        H988   1.110       .  S
C983        H989   1.097       .  S
C986        H990   1.109       .  S
C986        H991   1.110       .  S
C986        H992   1.111       .  S
C993        C994   1.406       .  A
C993        C998   1.405       .  A
C993       H1000   1.084       .  S
C994        C995   1.420       .  A
C995       C1002   1.508       .  S
C995        C996   1.407       .  A
C996        C997   1.406       .  A
C996       H1001   1.084       .  S
C997        C998   1.418       .  A
C998        C999   1.509       .  S
C999       H1003   1.111       .  S
C999       H1004   1.110       .  S
C999       H1005   1.110       .  S
C1002      H1006   1.110       .  S
C1002      H1007   1.110       .  S
C1002      H1008   1.111       .  S
C1009      C1010   1.403       .  A
C1009      C1014   1.401       .  A
C1009      H1016   1.084       .  S
C1010      C1011   1.415       .  A
C1011      C1018   1.508       .  S
C1011      C1012   1.412       .  A
C1012      C1013   1.407       .  A
C1012      H1017   1.084       .  S
C1013      C1014   1.419       .  A
C1014      C1015   1.510       .  S
C1015      H1019   1.111       .  S
C1015      H1020   1.110       .  S
C1015      H1021   1.110       .  S
C1018      H1022   1.110       .  S
C1018      H1023   1.106       .  S
C1018      H1024   1.111       .  S
C1025      C1026   1.407       .  A
C1025      C1030   1.408       .  A
C1025      H1032   1.084       .  S
C1026      C1027   1.420       .  A
C1027      C1034   1.508       .  S
C1027      C1028   1.409       .  A
C1028      C1029   1.407       .  A
C1028      H1033   1.084       .  S
C1029      C1030   1.420       .  A
C1030      C1031   1.509       .  S
C1031      H1035   1.111       .  S
C1031      H1036   1.110       .  S
C1031      H1037   1.110       .  S
C1034      H1038   1.110       .  S
C1034      H1039   1.110       .  S
C1034      H1040   1.111       .  S
C1041      C1042   1.406       .  A
C1041      C1046   1.407       .  A
C1041      H1048   1.084       .  S
C1042      C1043   1.419       .  A
C1043      C1050   1.507       .  S
C1043      C1044   1.412       .  A
C1044      C1045   1.408       .  A
C1044      H1049   1.084       .  S
C1045      C1046   1.421       .  A
C1046      C1047   1.509       .  S
C1047      H1051   1.111       .  S
C1047      H1052   1.110       .  S
C1047      H1053   1.110       .  S
C1050      H1054   1.110       .  S
C1050      H1055   1.110       .  S
C1050      H1056   1.111       .  S
C1057      C1058   1.402       .  A
C1057      C1062   1.405       .  A
C1057      H1064   1.084       .  S
C1058      C1059   1.415       .  A
C1059      C1066   1.507       .  S
C1059      C1060   1.408       .  A
C1060      C1061   1.407       .  A
C1060      H1065   1.084       .  S
C1061      C1062   1.420       .  A
C1062      C1063   1.509       .  S
C1063      H1067   1.111       .  S
C1063      H1068   1.110       .  S
C1063      H1069   1.109       .  S
C1066      H1070   1.110       .  S
C1066      H1071   1.111       .  S
C1066      H1072   1.111       .  S
C1073      C1074   1.408       .  A
C1073      C1078   1.408       .  A
C1073      H1080   1.084       .  S
C1074      C1075   1.419       .  A
C1075      C1082   1.508       .  S
C1075      C1076   1.405       .  A
C1076      C1077   1.406       .  A
C1076      H1081   1.084       .  S
C1077      C1078   1.420       .  A
C1078      C1079   1.508       .  S
C1079      H1083   1.111       .  S
C1079      H1084   1.110       .  S
C1079      H1085   1.109       .  S
C1082      H1086   1.110       .  S
C1082      H1087   1.110       .  S
C1082      H1088   1.111       .  S
C1089      C1090   1.397       .  A
C1089      C1094   1.400       .  A
C1089      H1096   1.084       .  S
C1090      C1091   1.413       .  A
C1091      C1098   1.507       .  S
C1091      C1092   1.410       .  A
C1092      C1093   1.416       .  A
C1092      H1097   1.074       .  S
C1093      C1094   1.431       .  A
C1094      C1095   1.507       .  S
C1095      H1099   1.111       .  S
C1095      H1100   1.101       .  S
C1095      H1101   1.105       .  S
C1098      H1102   1.110       .  S
C1098      H1103   1.109       .  S
C1098      H1104   1.111       .  S
C1105      C1106   1.409       .  A
C1105      C1110   1.411       .  A
C1105      H1112   1.083       .  S
C1106      C1107   1.421       .  A
C1107      C1114   1.510       .  S
C1107      C1108   1.404       .  A
C1108      C1109   1.405       .  A
C1108      H1113   1.084       .  S
C1109      C1110   1.417       .  A
C1110      C1111   1.507       .  S
C1111      H1115   1.111       .  S
C1111      H1116   1.110       .  S
C1111      H1117   1.111       .  S
C1114      H1118   1.110       .  S
C1114      H1119   1.110       .  S
C1114      H1120   1.111       .  S
C1121      C1122   1.402       .  A
C1121      C1126   1.404       .  A
C1121      H1128   1.084       .  S
C1122      C1123   1.414       .  A
C1123      C1130   1.507       .  S
C1123      C1124   1.410       .  A
C1124      C1125   1.410       .  A
C1124      H1129   1.084       .  S
C1125      C1126   1.422       .  A
C1126      C1127   1.509       .  S
C1127      H1131   1.111       .  S
C1127      H1132   1.110       .  S
C1127      H1133   1.110       .  S
C1130      H1134   1.110       .  S
C1130      H1135   1.111       .  S
C1130      H1136   1.111       .  S
C1137      C1138   1.405       .  A
C1137      C1142   1.405       .  A
C1137      H1144   1.084       .  S
C1138      C1139   1.421       .  A
C1139      C1146   1.509       .  S
C1139      C1140   1.408       .  A
C1140      C1141   1.407       .  A
C1140      H1145   1.084       .  S
C1141      C1142   1.419       .  A
C1142      C1143   1.508       .  S
C1143      H1147   1.111       .  S
C1143      H1148   1.110       .  S
C1143      H1149   1.110       .  S
C1146      H1150   1.110       .  S
C1146      H1151   1.110       .  S
C1146      H1152   1.111       .  S
C1153      C1154   1.406       .  A
C1153      C1158   1.407       .  A
C1153      H1160   1.084       .  S
C1154      C1155   1.421       .  A
C1155      C1162   1.509       .  S
C1155      C1156   1.403       .  A
C1156      C1157   1.404       .  A
C1156      H1161   1.084       .  S
C1157      C1158   1.420       .  A
C1158      C1159   1.508       .  S
C1159      H1163   1.111       .  S
C1159      H1164   1.110       .  S
C1159      H1165   1.110       .  S
C1162      H1166   1.110       .  S
C1162      H1167   1.110       .  S
C1162      H1168   1.111       .  S
C1169      C1170   1.404       .  A
C1169      C1174   1.401       .  A
C1169      H1176   1.084       .  S
C1170      C1171   1.417       .  A
C1171      C1178   1.505       .  S
C1171      C1172   1.412       .  A
C1172      C1173   1.404       .  A
C1172      H1177   1.084       .  S
C1173      C1174   1.414       .  A
C1174      C1175   1.509       .  S
C1175      H1179   1.111       .  S
C1175      H1180   1.109       .  S
C1175      H1181   1.108       .  S
C1178      H1182   1.109       .  S
C1178      H1183   1.110       .  S
C1178      H1184   1.111       .  S
C1185      C1186   1.405       .  A
C1185      C1190   1.405       .  A
C1185      H1192   1.084       .  S
C1186      C1187   1.420       .  A
C1187      C1194   1.508       .  S
C1187      C1188   1.408       .  A
C1188      C1189   1.406       .  A
C1188      H1193   1.084       .  S
C1189      C1190   1.421       .  A
C1190      C1191   1.509       .  S
C1191      H1195   1.111       .  S
C1191      H1196   1.110       .  S
C1191      H1197   1.109       .  S
C1194      H1198   1.110       .  S
C1194      H1199   1.110       .  S
C1194      H1200   1.111       .  S
C1201      C1202   1.407       .  A
C1201      C1206   1.406       .  A
C1201      H1208   1.084       .  S
C1202      C1203   1.419       .  A
C1203      C1210   1.508       .  S
C1203      C1204   1.408       .  A
C1204      C1205   1.407       .  A
C1204      H1209   1.084       .  S
C1205      C1206   1.418       .  A
C1206      C1207   1.508       .  S
C1207      H1211   1.111       .  S
C1207      H1212   1.109       .  S
C1207      H1213   1.110       .  S
C1210      H1214   1.109       .  S
C1210      H1215   1.110       .  S
C1210      H1216   1.111       .  S
C1217      C1218   1.405       .  A
C1217      C1222   1.405       .  A
C1217      H1224   1.084       .  S
C1218      C1219   1.418       .  A
C1219      C1226   1.509       .  S
C1219      C1220   1.404       .  A
C1220      C1221   1.405       .  A
C1220      H1225   1.084       .  S
C1221      C1222   1.420       .  A
C1222      C1223   1.509       .  S
C1223      H1227   1.111       .  S
C1223      H1228   1.110       .  S
C1223      H1229   1.110       .  S
C1226      H1230   1.110       .  S
C1226      H1231   1.110       .  S
C1226      H1232   1.111       .  S
C1233      C1234   1.404       .  A
C1233      C1238   1.405       .  A
C1233      H1240   1.084       .  S
C1234      C1235   1.417       .  A
C1235      C1242   1.509       .  S
C1235      C1236   1.402       .  A
C1236      C1237   1.405       .  A
C1236      H1241   1.084       .  S
C1237      C1238   1.418       .  A
C1238      C1239   1.508       .  S
C1239      H1243   1.111       .  S
C1239      H1244   1.110       .  S
C1239      H1245   1.111       .  S
C1242      H1246   1.110       .  S
C1242      H1247   1.111       .  S
C1242      H1248   1.111       .  S
C1249      C1250   1.406       .  A
C1249      C1254   1.408       .  A
C1249      H1256   1.084       .  S
C1250      C1251   1.422       .  A
C1251      C1258   1.509       .  S
C1251      C1252   1.409       .  A
C1252      C1253   1.407       .  A
C1252      H1257   1.084       .  S
C1253      C1254   1.419       .  A
C1254      C1255   1.508       .  S
C1255      H1259   1.111       .  S
C1255      H1260   1.110       .  S
C1255      H1261   1.110       .  S
C1258      H1262   1.110       .  S
C1258      H1263   1.110       .  S
C1258      H1264   1.111       .  S
C1265      C1266   1.405       .  A
C1265      C1270   1.406       .  A
C1265      H1272   1.084       .  S
C1266      C1267   1.415       .  A
C1267      C1274   1.508       .  S
C1267      C1268   1.405       .  A
C1268      C1269   1.408       .  A
C1268      H1273   1.084       .  S
C1269      C1270   1.419       .  A
C1270      C1271   1.508       .  S
C1271      H1275   1.111       .  S
C1271      H1276   1.110       .  S
C1271      H1277   1.109       .  S
C1274      H1278   1.110       .  S
C1274      H1279   1.110       .  S
C1274      H1280   1.111       .  S
C1281      C1282   1.401       .  A
C1281      C1286   1.403       .  A
C1281      H1288   1.084       .  S
C1282      C1283   1.416       .  A
C1283      C1290   1.508       .  S
C1283      C1284   1.407       .  A
C1284      C1285   1.408       .  A
C1284      H1289   1.084       .  S
C1285      C1286   1.421       .  A
C1286      C1287   1.509       .  S
C1287      H1291   1.111       .  S
C1287      H1292   1.110       .  S
C1287      H1293   1.110       .  S
C1290      H1294   1.110       .  S
C1290      H1295   1.111       .  S
C1290      H1296   1.111       .  S
C1297      C1298   1.406       .  A
C1297      C1302   1.404       .  A
C1297      H1304   1.084       .  S
C1298      C1299   1.419       .  A
C1299      C1306   1.509       .  S
C1299      C1300   1.403       .  A
C1300      C1301   1.404       .  A
C1300      H1305   1.084       .  S
C1301      C1302   1.416       .  A
C1302      C1303   1.508       .  S
C1303      H1307   1.111       .  S
C1303      H1308   1.110       .  S
C1303      H1309   1.110       .  S
C1306      H1310   1.110       .  S
C1306      H1311   1.110       .  S
C1306      H1312   1.111       .  S
C1313      C1314   1.404       .  A
C1313      C1318   1.408       .  A
C1313      H1320   1.084       .  S
C1314      C1315   1.418       .  A
C1315      C1322   1.510       .  S
C1315      C1316   1.403       .  A
C1316      C1317   1.406       .  A
C1316      H1321   1.084       .  S
C1317      C1318   1.420       .  A
C1318      C1319   1.507       .  S
C1319      H1323   1.111       .  S
C1319      H1324   1.110       .  S
C1319      H1325   1.110       .  S
C1322      H1326   1.109       .  S
C1322      H1327   1.111       .  S
C1322      H1328   1.111       .  S
C1329      C1330   1.406       .  A
C1329      C1334   1.404       .  A
C1329      H1336   1.084       .  S
C1330      C1331   1.420       .  A
C1331      C1338   1.509       .  S
C1331      C1332   1.403       .  A
C1332      C1333   1.404       .  A
C1332      H1337   1.084       .  S
C1333      C1334   1.417       .  A
C1334      C1335   1.508       .  S
C1335      H1339   1.111       .  S
C1335      H1340   1.110       .  S
C1335      H1341   1.110       .  S
C1338      H1342   1.110       .  S
C1338      H1343   1.110       .  S
C1338      H1344   1.111       .  S
C1345      C1346   1.406       .  A
C1345      C1350   1.405       .  A
C1345      H1352   1.084       .  S
C1346      C1347   1.419       .  A
C1347      C1354   1.508       .  S
C1347      C1348   1.405       .  A
C1348      C1349   1.406       .  A
C1348      H1353   1.084       .  S
C1349      C1350   1.420       .  A
C1350      C1351   1.509       .  S
C1351      H1355   1.111       .  S
C1351      H1356   1.110       .  S
C1351      H1357   1.110       .  S
C1354      H1358   1.110       .  S
C1354      H1359   1.110       .  S
C1354      H1360   1.111       .  S
C1361      C1362   1.402       .  A
C1361      C1366   1.405       .  A
C1361      H1368   1.084       .  S
C1362      C1363   1.412       .  A
C1363      C1370   1.508       .  S
C1363      C1364   1.404       .  A
C1364      C1365   1.408       .  A
C1364      H1369   1.084       .  S
C1365      C1366   1.420       .  A
C1366      C1367   1.508       .  S
C1367      H1371   1.111       .  S
C1367      H1372   1.110       .  S
C1367      H1373   1.110       .  S
C1370      H1374   1.109       .  S
C1370      H1375   1.110       .  S
C1370      H1376   1.111       .  S
C1377      C1378   1.400       .  A
C1377      C1382   1.402       .  A
C1377      H1384   1.084       .  S
C1378      C1379   1.414       .  A
C1379      C1386   1.509       .  S
C1379      C1380   1.406       .  A
C1380      C1381   1.413       .  A
C1380      H1385   1.075       .  S
C1381      C1382   1.429       .  A
C1382      C1383   1.513       .  S
C1383      H1387   1.111       .  S
C1383      H1388   1.105       .  S
C1383      H1389   1.107       .  S
C1386      H1390   1.109       .  S
C1386      H1391   1.111       .  S
C1386      H1392   1.111       .  S
C1393      C1394   1.406       .  A
C1393      C1398   1.404       .  A
C1393      H1400   1.084       .  S
C1394      C1395   1.418       .  A
C1395      C1402   1.508       .  S
C1395      C1396   1.403       .  A
C1396      C1397   1.404       .  A
C1396      H1401   1.084       .  S
C1397      C1398   1.418       .  A
C1398      C1399   1.509       .  S
C1399      H1403   1.111       .  S
C1399      H1404   1.111       .  S
C1399      H1405   1.110       .  S
C1402      H1406   1.109       .  S
C1402      H1407   1.110       .  S
C1402      H1408   1.111       .  S
C1409      C1410   1.402       .  A
C1409      C1414   1.401       .  A
C1409      H1416   1.084       .  S
C1410      C1411   1.418       .  A
C1411      C1418   1.507       .  S
C1411      C1412   1.410       .  A
C1412      C1413   1.406       .  A
C1412      H1417   1.084       .  S
C1413      C1414   1.419       .  A
C1414      C1415   1.509       .  S
C1415      H1419   1.111       .  S
C1415      H1420   1.109       .  S
C1415      H1421   1.110       .  S
C1418      H1422   1.110       .  S
C1418      H1423   1.110       .  S
C1418      H1424   1.111       .  S
C1425      C1426   1.405       .  A
C1425      C1430   1.402       .  A
C1425      H1432   1.084       .  S
C1426      C1427   1.419       .  A
C1427      C1434   1.509       .  S
C1427      C1428   1.403       .  A
C1428      C1429   1.406       .  A
C1428      H1433   1.084       .  S
C1429      C1430   1.418       .  A
C1430      C1431   1.509       .  S
C1431      H1435   1.111       .  S
C1431      H1436   1.110       .  S
C1431      H1437   1.110       .  S
C1434      H1438   1.110       .  S
C1434      H1439   1.110       .  S
C1434      H1440   1.111       .  S
C1441      C1442   1.414       .  A
C1441      C1446   1.410       .  A
C1441      H1448   1.075       .  S
C1442      C1443   1.431       .  A
C1443      C1450   1.515       .  S
C1443      C1444   1.404       .  A
C1444      C1445   1.402       .  A
C1444      H1449   1.084       .  S
C1445      C1446   1.416       .  A
C1446      C1447   1.508       .  S
C1447      H1451   1.111       .  S
C1447      H1452   1.110       .  S
C1447      H1453   1.110       .  S
C1450      H1454   1.106       .  S
C1450      H1455   1.105       .  S
C1450      H1456   1.111       .  S
C1457      C1458   1.401       .  A
C1457      C1462   1.412       .  A
C1457      H1464   1.084       .  S
C1458      C1459   1.413       .  A
C1459      C1466   1.506       .  S
C1459      C1460   1.404       .  A
C1460      C1461   1.408       .  A
C1460      H1465   1.078       .  S
C1461      C1462   1.426       .  A
C1462      C1463   1.507       .  S
C1463      H1467   1.111       .  S
C1463      H1468   1.110       .  S
C1463      H1469   1.107       .  S
C1466      H1470   1.100       .  S
C1466      H1471   1.107       .  S
C1466      H1472   1.111       .  S
C1473      C1474   1.414       .  A
C1473      C1478   1.408       .  A
C1473      H1480   1.075       .  S
C1474      C1475   1.433       .  A
C1475      C1482   1.516       .  S
C1475      C1476   1.405       .  A
C1476      C1477   1.399       .  A
C1476      H1481   1.084       .  S
C1477      C1478   1.414       .  A
C1478      C1479   1.509       .  S
C1479      H1483   1.111       .  S
C1479      H1484   1.110       .  S
C1479      H1485   1.109       .  S
C1482      H1486   1.105       .  S
C1482      H1487   1.105       .  S
C1482      H1488   1.111       .  S
C1489      C1490   1.406       .  A
C1489      C1494   1.392       .  A
C1489      H1496   1.084       .  S
C1490      C1491   1.425       .  A
C1491      C1498   1.505       .  S
C1491      C1492   1.407       .  A
C1492      C1493   1.400       .  A
C1492      H1497   1.082       .  S
C1493      C1494   1.412       .  A
C1494      C1495   1.509       .  S
C1495      H1499   1.111       .  S
C1495      H1500   1.108       .  S
C1495      H1501   1.110       .  S
C1498      H1502   1.107       .  S
C1498      H1503   1.099       .  S
C1498      H1504   1.110       .  S
C1505      C1506   1.402       .  A
C1505      C1510   1.401       .  A
C1505      H1512   1.085       .  S
C1506      C1507   1.410       .  A
C1507      C1514   1.504       .  S
C1507      C1508   1.404       .  A
C1508      C1509   1.403       .  A
C1508      H1513   1.081       .  S
C1509      C1510   1.414       .  A
C1510      C1511   1.509       .  S
C1511      H1515   1.111       .  S
C1511      H1516   1.104       .  S
C1511      H1517   1.109       .  S
C1514      H1518   1.105       .  S
C1514      H1519   1.110       .  S
C1514      H1520   1.110       .  S
C1521      C1522   1.409       .  A
C1521      C1526   1.405       .  A
C1521      H1528   1.076       .  S
C1522      C1523   1.430       .  A
C1523      C1530   1.508       .  S
C1523      C1524   1.409       .  A
C1524      C1525   1.397       .  A
C1524      H1529   1.085       .  S
C1525      C1526   1.416       .  A
C1526      C1527   1.512       .  S
C1527      H1531   1.111       .  S
C1527      H1532   1.109       .  S
C1527      H1533   1.106       .  S
C1530      H1534   1.108       .  S
C1530      H1535   1.110       .  S
C1530      H1536   1.111       .  S
C1537      C1538   1.410       .  A
C1537      C1542   1.410       .  A
C1537      H1544   1.084       .  S
C1538      C1539   1.423       .  A
C1539      C1546   1.503       .  S
C1539      C1540   1.407       .  A
C1540      C1541   1.400       .  A
C1540      H1545   1.082       .  S
C1541      C1542   1.415       .  A
C1542      C1543   1.508       .  S
C1543      H1547   1.111       .  S
C1543      H1548   1.110       .  S
C1543      H1549   1.106       .  S
C1546      H1550   1.105       .  S
C1546      H1551   1.102       .  S
C1546      H1552   1.111       .  S
C1553      C1554   1.416       .  A
C1553      C1558   1.413       .  A
C1553      H1560   1.076       .  S
C1554      C1555   1.433       .  A
C1555      C1562   1.511       .  S
C1555      C1556   1.398       .  A
C1556      C1557   1.394       .  A
C1556      H1561   1.085       .  S
C1557      C1558   1.412       .  A
C1558      C1559   1.506       .  S
C1559      H1563   1.111       .  S
C1559      H1564   1.109       .  S
C1559      H1565   1.111       .  S
C1562      H1566   1.105       .  S
C1562      H1567   1.104       .  S
C1562      H1568   1.111       .  S
C1569      C1570   1.403       .  A
C1569      C1574   1.408   1_556  A
C1569      H1576   1.081       .  S
C1570      C1571   1.415       .  A
C1571      C1578   1.506       .  S
C1571      C1572   1.410   1_556  A
C1572      C1573   1.409       .  A
C1572      H1577   1.084       .  S
C1573      C1574   1.424       .  A
C1574      C1575   1.505       .  S
C1575      H1579   1.111       .  S
C1575      H1580   1.106       .  S
C1575      H1581   1.100       .  S
C1578      H1582   1.109       .  S
C1578      H1583   1.110       .  S
C1578      H1584   1.110       .  S
C1585      C1586   1.398       .  A
C1585      C1590   1.406       .  A
C1585      H1592   1.084       .  S
C1586      C1587   1.419       .  A
C1587      C1594   1.502       .  S
C1587      C1588   1.402       .  A
C1588      C1589   1.402       .  A
C1588      H1593   1.084       .  S
C1589      C1590   1.425       .  A
C1590      C1591   1.501       .  S
C1591      H1595   1.111       .  S
C1591      H1596   1.105       .  S
C1591      H1597   1.109       .  S
C1594      H1598   1.110       .  S
C1594      H1599   1.104       .  S
C1594      H1600   1.111       .  S
C1601      C1602   1.413       .  A
C1601      C1606   1.407       .  A
C1601      H1608   1.075       .  S
C1602      C1603   1.431       .  A
C1603      C1610   1.517       .  S
C1603      C1604   1.403       .  A
C1604      C1605   1.401       .  A
C1604      H1609   1.084       .  S
C1605      C1606   1.416       .  A
C1606      C1607   1.509       .  S
C1607      H1611   1.111       .  S
C1607      H1612   1.110       .  S
C1607      H1613   1.110       .  S
C1610      H1614   1.105       .  S
C1610      H1615   1.105       .  S
C1610      H1616   1.111       .  S
C1617      C1618   1.406       .  A
C1617      C1622   1.410   1_556  A
C1617      H1624   1.084       .  S
C1618      C1619   1.420       .  A
C1619      C1626   1.499       .  S
C1619      C1620   1.405   1_556  A
C1620      C1621   1.400       .  A
C1620      H1625   1.083       .  S
C1621      C1622   1.415       .  A
C1622      C1623   1.507       .  S
C1623      H1627   1.111       .  S
C1623      H1628   1.110       .  S
C1623      H1629   1.107       .  S
C1626      H1630   1.108       .  S
C1626      H1631   1.106       .  S
C1626      H1632   1.111   1_556  S
C1633      C1634   1.400       .  A
C1633      C1638   1.395       .  A
C1633      H1640   1.085       .  S
C1634      C1635   1.414       .  A
C1635      C1642   1.507       .  S
C1635      C1636   1.406       .  A
C1636      C1637   1.403       .  A
C1636      H1641   1.085       .  S
C1637      C1638   1.416       .  A
C1638      C1639   1.510       .  S
C1639      H1643   1.111       .  S
C1639      H1644   1.110       .  S
C1639      H1645   1.107       .  S
C1642      H1646   1.109       .  S
C1642      H1647   1.107       .  S
C1642      H1648   1.110       .  S
C1649      C1650   1.410       .  A
C1649      C1654   1.405       .  A
C1649      H1656   1.084       .  S
C1650      C1651   1.421       .  A
C1651      C1658   1.505       .  S
C1651      C1652   1.408       .  A
C1652      C1653   1.403       .  A
C1652      H1657   1.082       .  S
C1653      C1654   1.414       .  A
C1654      C1655   1.507       .  S
C1655      H1659   1.110       .  S
C1655      H1660   1.110       .  S
C1655      H1661   1.108       .  S
C1658      H1662   1.103       .  S
C1658      H1663   1.107       .  S
C1658      H1664   1.111       .  S
C1665      C1666   1.402       .  A
C1665      C1670   1.408       .  A
C1665      H1672   1.084       .  S
C1666      C1667   1.417       .  A
C1667      C1674   1.511       .  S
C1667      C1668   1.396       .  A
C1668      C1669   1.401       .  A
C1668      H1673   1.085       .  S
C1669      C1670   1.416       .  A
C1670      C1671   1.506       .  S
C1671      H1675   1.110       .  S
C1671      H1676   1.106       .  S
C1671      H1677   1.110       .  S
C1674      H1678   1.107       .  S
C1674      H1679   1.110       .  S
C1674      H1680   1.111       .  S
C1681      C1682   1.404       .  A
C1681      C1686   1.409       .  A
C1681      H1688   1.084       .  S
C1682      C1683   1.423       .  A
C1683      C1690   1.503       .  S
C1683      C1684   1.402       .  A
C1684      C1685   1.398       .  A
C1684      H1689   1.084       .  S
C1685      C1686   1.423       .  A
C1686      C1687   1.509       .  S
C1687      H1691   1.111       .  S
C1687      H1692   1.110       .  S
C1687      H1693   1.107       .  S
C1690      H1694   1.110       .  S
C1690      H1695   1.104       .  S
C1690      H1696   1.111       .  S
C1697      C1698   1.413       .  A
C1697      C1702   1.408       .  A
C1697      H1704   1.075       .  S
C1698      C1699   1.432       .  A
C1699      C1706   1.513       .  S
C1699      C1700   1.401       .  A
C1700      C1701   1.399       .  A
C1700      H1705   1.085       .  S
C1701      C1702   1.415       .  A
C1702      C1703   1.509       .  S
C1703      H1707   1.111       .  S
C1703      H1708   1.109       .  S
C1703      H1709   1.110       .  S
C1706      H1710   1.098       .  S
C1706      H1711   1.111       .  S
C1706      H1712   1.111       .  S
C1713      C1714   1.397       .  A
C1713      C1718   1.400       .  A
C1713      H1720   1.083       .  S
C1714      C1715   1.416       .  A
C1715      C1722   1.506       .  S
C1715      C1716   1.409       .  A
C1716      C1717   1.407       .  A
C1716      H1721   1.084       .  S
C1717      C1718   1.420       .  A
C1718      C1719   1.501       .  S
C1719      H1723   1.111       .  S
C1719      H1724   1.106       .  S
C1719      H1725   1.102       .  S
C1722      H1726   1.110       .  S
C1722      H1727   1.107       .  S
C1722      H1728   1.110       .  S
C1729      C1730   1.413       .  A
C1729      C1734   1.402       .  A
C1729      H1736   1.085       .  S
C1730      C1731   1.422       .  A
C1731      C1738   1.503       .  S
C1731      C1732   1.408       .  A
C1732      C1733   1.406       .  A
C1732      H1737   1.084       .  S
C1733      C1734   1.415       .  A
C1734      C1735   1.509       .  S
C1735      H1739   1.111       .  S
C1735      H1740   1.110       .  S
C1735      H1741   1.110       .  S
C1738      H1742   1.110       .  S
C1738      H1743   1.109       .  S
C1738      H1744   1.111       .  S
C1745      C1746   1.407       .  A
C1745      C1750   1.396       .  A
C1745      H1752   1.085       .  S
C1746      C1747   1.415       .  A
C1747      C1754   1.505       .  S
C1747      C1748   1.403       .  A
C1748      C1749   1.404       .  A
C1748      H1753   1.082       .  S
C1749      C1750   1.415       .  A
C1750      C1751   1.510       .  S
C1751      H1755   1.111       .  S
C1751      H1756   1.110       .  S
C1751      H1757   1.106       .  S
C1754      H1758   1.102       .  S
C1754      H1759   1.106       .  S
C1754      H1760   1.111       .  S
C1761      C1762   1.397       .  A
C1761      C1766   1.403       .  A
C1761      H1768   1.080       .  S
C1762      C1763   1.419       .  A
C1763      C1770   1.509       .  S
C1763      C1764   1.403       .  A
C1764      C1765   1.409       .  A
C1764      H1769   1.085       .  S
C1765      C1766   1.418       .  A
C1766      C1767   1.490       .  S
C1767      H1771   1.111       .  S
C1767      H1772   1.106       .  S
C1767      H1773   1.109       .  S
C1770      H1774   1.107       .  S
C1770      H1775   1.110       .  S
C1770      H1776   1.111       .  S
C1777      C1778   1.410       .  A
C1777      C1782   1.410       .  A
C1777      H1784   1.084       .  S
C1778      C1779   1.420       .  A
C1779      C1786   1.504       .  S
C1779      C1780   1.404       .  A
C1780      C1781   1.400       .  A
C1780      H1785   1.080       .  S
C1781      C1782   1.412       .  A
C1782      C1783   1.506       .  S
C1783      H1787   1.111       .  S
C1783      H1788   1.111       .  S
C1783      H1789   1.109       .  S
C1786      H1790   1.106       .  S
C1786      H1791   1.106       .  S
C1786      H1792   1.111       .  S
C1793      C1794   1.412       .  A
C1793      C1798   1.408       .  A
C1793      H1800   1.077       .  S
C1794      C1795   1.428       .  A
C1795      C1802   1.512       .  S
C1795      C1796   1.401       .  A
C1796      C1797   1.399       .  A
C1796      H1801   1.084       .  S
C1797      C1798   1.416       .  A
C1798      C1799   1.508       .  S
C1799      H1803   1.111       .  S
C1799      H1804   1.111       .  S
C1799      H1805   1.109       .  S
C1802      H1806   1.108       .  S
C1802      H1807   1.105       .  S
C1802      H1808   1.111       .  S
C1809      C1810   1.393       .  A
C1809      C1814   1.396   1_554  A
C1809      H1816   1.082       .  S
C1810      C1811   1.410       .  A
C1811      C1818   1.504       .  S
C1811      C1812   1.410   1_554  A
C1812      C1813   1.406       .  A
C1812      H1817   1.084       .  S
C1813      C1814   1.422       .  A
C1814      C1815   1.505       .  S
C1815      H1819   1.110       .  S
C1815      H1820   1.111       .  S
C1815      H1821   1.096       .  S
C1818      H1822   1.110       .  S
C1818      H1823   1.110       .  S
C1818      H1824   1.111       .  S
C1825      C1826   1.414       .  A
C1825      C1830   1.406       .  A
C1825      H1832   1.084       .  S
C1826      C1827   1.422       .  A
C1827      C1834   1.506       .  S
C1827      C1828   1.405       .  A
C1828      C1829   1.393       .  A
C1828      H1833   1.063       .  S
C1829      C1830   1.414       .  A
C1830      C1831   1.506       .  S
C1831      H1835   1.111       .  S
C1831      H1836   1.110       .  S
C1831      H1837   1.110       .  S
C1834      H1838   1.108       .  S
C1834      H1839   1.107       .  S
C1834      H1840   1.110       .  S
C1841      C1842   1.404       .  A
C1841      C1846   1.401       .  A
C1841      H1848   1.084       .  S
C1842      C1843   1.421       .  A
C1843      C1850   1.509       .  S
C1843      C1844   1.405       .  A
C1844      C1845   1.401       .  A
C1844      H1849   1.084       .  S
C1845      C1846   1.415       .  A
C1846      C1847   1.510       .  S
C1847      H1851   1.111       .  S
C1847      H1852   1.106       .  S
C1847      H1853   1.111       .  S
C1850      H1854   1.107       .  S
C1850      H1855   1.110       .  S
C1850      H1856   1.111       .  S
C1857      C1858   1.416       .  A
C1857      C1862   1.409       .  A
C1857      H1864   1.074       .  S
C1858      C1859   1.428       .  A
C1859      C1866   1.508       .  S
C1859      C1860   1.401       .  A
C1860      C1861   1.399       .  A
C1860      H1865   1.084       .  S
C1861      C1862   1.413       .  A
C1862      C1863   1.508       .  S
C1863      H1867   1.111       .  S
C1863      H1868   1.110       .  S
C1863      H1869   1.110       .  S
C1866      H1870   1.103       .  S
C1866      H1871   1.106       .  S
C1866      H1872   1.111       .  S
C1873      C1874   1.401       .  A
C1873      C1878   1.397   1_556  A
C1873      H1880   1.085       .  S
C1874      C1875   1.412   1_556  A
C1875      C1882   1.503   1_554  S
C1875      C1876   1.417       .  A
C1876      C1877   1.408       .  A
C1876      H1881   1.084       .  S
C1877      C1878   1.414       .  A
C1878      C1879   1.503       .  S
C1879      H1883   1.111       .  S
C1879      H1884   1.109       .  S
C1879      H1885   1.105       .  S
C1882      H1886   1.110       .  S
C1882      H1887   1.110       .  S
C1882      H1888   1.111   1_556  S
C1889      C1890   1.402       .  A
C1889      C1894   1.399       .  A
C1889      H1896   1.084       .  S
C1890      C1891   1.415       .  A
C1891      C1898   1.507       .  S
C1891      C1892   1.408       .  A
C1892      C1893   1.404       .  A
C1892      H1897   1.084       .  S
C1893      C1894   1.419       .  A
C1894      C1895   1.511       .  S
C1895      H1899   1.111       .  S
C1895      H1900   1.106       .  S
C1895      H1901   1.106       .  S
C1898      H1902   1.110       .  S
C1898      H1903   1.106       .  S
C1898      H1904   1.110       .  S
C1905      C1906   1.410       .  A
C1905      C1910   1.415       .  A
C1905      H1912   1.084       .  S
C1906      C1907   1.417       .  A
C1907      C1914   1.501       .  S
C1907      C1908   1.405       .  A
C1908      C1909   1.398       .  A
C1908      H1913   1.076       .  S
C1909      C1910   1.417       .  A
C1910      C1911   1.506       .  S
C1911      H1915   1.111       .  S
C1911      H1916   1.108       .  S
C1911      H1917   1.110       .  S
C1914      H1918   1.098       .  S
C1914      H1919   1.107       .  S
C1914      H1920   1.111       .  S
C1921      C1922   1.405       .  A
C1921      C1926   1.410       .  A
C1921      H1928   1.084       .  S
C1922      C1923   1.419       .  A
C1923      C1930   1.511       .  S
C1923      C1924   1.398       .  A
C1924      C1925   1.403       .  A
C1924      H1929   1.084       .  S
C1925      C1926   1.416       .  A
C1926      C1927   1.507       .  S
C1927      H1931   1.110       .  S
C1927      H1932   1.106       .  S
C1927      H1933   1.109       .  S
C1930      H1934   1.105       .  S
C1930      H1935   1.110       .  S
C1930      H1936   1.111       .  S
C1937      C1938   1.400       .  A
C1937      C1942   1.403       .  A
C1937      H1944   1.083       .  S
C1938      C1939   1.426       .  A
C1939      C1946   1.502       .  S
C1939      C1940   1.406       .  A
C1940      C1941   1.398       .  A
C1940      H1945   1.084       .  S
C1941      C1942   1.421       .  A
C1942      C1943   1.502       .  S
C1943      H1947   1.111       .  S
C1943      H1948   1.110       .  S
C1943      H1949   1.102       .  S
C1946      H1950   1.108       .  S
C1946      H1951   1.105       .  S
C1946      H1952   1.111       .  S
C1953      C1954   1.412       .  A
C1953      C1958   1.406       .  A
C1953      H1960   1.077       .  S
C1954      C1955   1.429       .  A
C1955      C1962   1.514       .  S
C1955      C1956   1.399       .  A
C1956      C1957   1.401       .  A
C1956      H1961   1.085       .  S
C1957      C1958   1.415       .  A
C1958      C1959   1.509       .  S
C1959      H1963   1.111       .  S
C1959      H1964   1.110       .  S
C1959      H1965   1.109       .  S
C1962      H1966   1.101       .  S
C1962      H1967   1.111       .  S
C1962      H1968   1.111       .  S
C1969      C1970   1.405       .  A
C1969      C1974   1.403   1_655  A
C1969      H1976   1.084       .  S
C1970      C1971   1.419       .  A
C1971      C1978   1.508       .  S
C1971      C1972   1.406   1_655  A
C1972      C1973   1.406       .  A
C1972      H1977   1.084       .  S
C1973      C1974   1.418       .  A
C1974      C1975   1.509       .  S
C1975      H1979   1.111       .  S
C1975      H1980   1.110       .  S
C1975      H1981   1.110       .  S
C1978      H1982   1.110       .  S
C1978      H1983   1.110       .  S
C1978      H1984   1.111   1_655  S
C1985      C1986   1.412       .  A
C1985      C1990   1.404       .  A
C1985      H1992   1.084       .  S
C1986      C1987   1.421       .  A
C1987      C1994   1.506       .  S
C1987      C1988   1.404       .  A
C1988      C1989   1.404       .  A
C1988      H1993   1.085       .  S
C1989      C1990   1.415       .  A
C1990      C1991   1.508       .  S
C1991      H1995   1.111       .  S
C1991      H1996   1.110       .  S
C1991      H1997   1.110       .  S
C1994      H1998   1.107       .  S
C1994      H1999   1.110       .  S
C1994      H2000   1.111       .  S
C2001      C2002   1.402       .  A
C2001      C2006   1.403       .  A
C2001      H2008   1.083       .  S
C2002      C2003   1.416       .  A
C2003      C2010   1.508       .  S
C2003      C2004   1.405       .  A
C2004      C2005   1.404       .  A
C2004      H2009   1.084       .  S
C2005      C2006   1.417       .  A
C2006      C2007   1.508       .  S
C2007      H2011   1.111       .  S
C2007      H2012   1.109       .  S
C2007      H2013   1.110       .  S
C2010      H2014   1.108       .  S
C2010      H2015   1.110       .  S
C2010      H2016   1.111       .  S
C2017      C2018   1.404       .  A
C2017      C2022   1.407   1_655  A
C2017      H2024   1.084       .  S
C2018      C2019   1.418       .  A
C2019      C2026   1.508       .  S
C2019      C2020   1.408   1_655  A
C2020      C2021   1.406       .  A
C2020      H2025   1.084       .  S
C2021      C2022   1.423       .  A
C2022      C2023   1.509       .  S
C2023      H2027   1.111       .  S
C2023      H2028   1.110       .  S
C2023      H2029   1.110       .  S
C2026      H2030   1.110       .  S
C2026      H2031   1.110       .  S
C2026      H2032   1.111       .  S
C2033      C2034   1.401       .  A
C2033      C2038   1.402       .  A
C2033      H2040   1.085       .  S
C2034      C2035   1.417       .  A
C2035      C2042   1.510       .  S
C2035      C2036   1.407       .  A
C2036      C2037   1.412       .  A
C2036      H2041   1.074       .  S
C2037      C2038   1.431       .  A
C2038      C2039   1.515       .  S
C2039      H2043   1.111       .  S
C2039      H2044   1.101       .  S
C2039      H2045   1.111       .  S
C2042      H2046   1.110       .  S
C2042      H2047   1.110       .  S
C2042      H2048   1.111       .  S
C2049      C2050   1.406       .  A
C2049      C2054   1.401       .  A
C2049      H2056   1.084       .  S
C2050      C2051   1.418       .  A
C2051      C2058   1.506       .  S
C2051      C2052   1.413       .  A
C2052      C2053   1.408       .  A
C2052      H2057   1.084       .  S
C2053      C2054   1.420       .  A
C2054      C2055   1.511       .  S
C2055      H2059   1.111       .  S
C2055      H2060   1.110       .  S
C2055      H2061   1.110       .  S
C2058      H2062   1.110       .  S
C2058      H2063   1.110       .  S
C2058      H2064   1.111       .  S
C2065      C2066   1.403       .  A
C2065      C2070   1.408       .  A
C2065      H2072   1.084       .  S
C2066      C2067   1.414       .  A
C2067      C2074   1.510       .  S
C2067      C2068   1.402       .  A
C2068      C2069   1.411       .  A
C2068      H2073   1.082       .  S
C2069      C2070   1.423       .  A
C2070      C2071   1.507       .  S
C2071      H2075   1.111       .  S
C2071      H2076   1.106       .  S
C2071      H2077   1.110       .  S
C2074      H2078   1.110       .  S
C2074      H2079   1.111       .  S
C2074      H2080   1.111       .  S
C2081      C2082   1.403       .  A
C2081      C2086   1.408       .  A
C2081      H2088   1.084       .  S
C2082      C2083   1.414       .  A
C2083      C2090   1.510       .  S
C2083      C2084   1.400       .  A
C2084      C2085   1.406       .  A
C2084      H2089   1.084       .  S
C2085      C2086   1.420       .  A
C2086      C2087   1.507       .  S
C2087      H2091   1.111       .  S
C2087      H2092   1.110       .  S
C2087      H2093   1.110       .  S
C2090      H2094   1.110       .  S
C2090      H2095   1.109       .  S
C2090      H2096   1.111       .  S
C2097      C2098   1.405       .  A
C2097      C2102   1.406   1_565  A
C2097      H2104   1.084       .  S
C2098      C2099   1.420       .  A
C2099      C2106   1.508       .  S
C2099      C2100   1.408   1_565  A
C2100      C2101   1.407       .  A
C2100      H2105   1.084       .  S
C2101      C2102   1.421       .  A
C2102      C2103   1.508       .  S
C2103      H2107   1.111       .  S
C2103      H2108   1.110       .  S
C2103      H2109   1.110       .  S
C2106      H2110   1.110       .  S
C2106      H2111   1.110       .  S
C2106      H2112   1.111       .  S
C2113      C2114   1.415       .  A
C2113      C2118   1.409       .  A
C2113      H2120   1.074       .  S
C2114      C2115   1.429       .  A
C2115      C2122   1.511       .  S
C2115      C2116   1.401       .  A
C2116      C2117   1.401       .  A
C2116      H2121   1.084       .  S
C2117      C2118   1.414       .  A
C2118      C2119   1.508       .  S
C2119      H2123   1.111       .  S
C2119      H2124   1.110       .  S
C2119      H2125   1.110       .  S
C2122      H2126   1.105       .  S
C2122      H2127   1.105       .  S
C2122      H2128   1.111       .  S
C2129      C2130   1.406       .  A
C2129      C2134   1.401       .  A
C2129      H2136   1.084       .  S
C2130      C2131   1.419       .  A
C2131      C2138   1.507       .  S
C2131      C2132   1.407       .  A
C2132      C2133   1.404       .  A
C2132      H2137   1.084       .  S
C2133      C2134   1.413       .  A
C2134      C2135   1.509       .  S
C2135      H2139   1.111       .  S
C2135      H2140   1.110       .  S
C2135      H2141   1.109       .  S
C2138      H2142   1.110       .  S
C2138      H2143   1.109       .  S
C2138      H2144   1.111       .  S
C2145      C2146   1.406       .  A
C2145      C2150   1.407       .  A
C2145      H2152   1.084       .  S
C2146      C2147   1.418       .  A
C2147      C2154   1.509       .  S
C2147      C2148   1.403       .  A
C2148      C2149   1.402       .  A
C2148      H2153   1.084       .  S
C2149      C2150   1.416       .  A
C2150      C2151   1.508       .  S
C2151      H2155   1.111       .  S
C2151      H2156   1.111       .  S
C2151      H2157   1.110       .  S
C2154      H2158   1.109       .  S
C2154      H2159   1.110       .  S
C2154      H2160   1.111       .  S
C2161      C2162   1.405       .  A
C2161      C2166   1.402   1_565  A
C2161      H2168   1.084       .  S
C2162      C2163   1.418       .  A
C2163      C2170   1.507       .  S
C2163      C2164   1.407   1_565  A
C2164      C2165   1.407       .  A
C2164      H2169   1.084       .  S
C2165      C2166   1.418       .  A
C2166      C2167   1.509       .  S
C2167      H2171   1.111       .  S
C2167      H2172   1.110       .  S
C2167      H2173   1.110       .  S
C2170      H2174   1.110       .  S
C2170      H2175   1.109       .  S
C2170      H2176   1.111       .  S
C2177      C2178   1.401       .  A
C2177      C2182   1.404       .  A
C2177      H2184   1.084       .  S
C2178      C2179   1.416       .  A
C2179      C2186   1.508       .  S
C2179      C2180   1.411       .  A
C2180      C2181   1.415       .  A
C2180      H2185   1.075       .  S
C2181      C2182   1.433       .  A
C2182      C2183   1.516       .  S
C2183      H2187   1.111       .  S
C2183      H2188   1.104       .  S
C2183      H2189   1.104       .  S
C2186      H2190   1.110       .  S
C2186      H2191   1.110       .  S
C2186      H2192   1.111       .  S
C2193      C2194   1.406       .  A
C2193      C2198   1.405   1_556  A
C2193      H2200   1.084       .  S
C2194      C2195   1.419       .  A
C2195      C2202   1.509       .  S
C2195      C2196   1.404   1_556  A
C2196      C2197   1.405       .  A
C2196      H2201   1.084       .  S
C2197      C2198   1.420       .  A
C2198      C2199   1.509       .  S
C2199      H2203   1.111       .  S
C2199      H2204   1.110       .  S
C2199      H2205   1.110       .  S
C2202      H2206   1.110       .  S
C2202      H2207   1.110       .  S
C2202      H2208   1.111   1_556  S
C2209      C2210   1.406       .  A
C2209      C2214   1.402       .  A
C2209      H2216   1.084       .  S
C2210      C2211   1.420       .  A
C2211      C2218   1.508       .  S
C2211      C2212   1.408       .  A
C2212      C2213   1.406   1_554  A
C2212      H2217   1.084   1_554  S
C2213      C2214   1.417   1_556  A
C2214      C2215   1.509   1_554  S
C2215      H2219   1.111   1_556  S
C2215      H2220   1.110       .  S
C2215      H2221   1.110       .  S
C2218      H2222   1.110       .  S
C2218      H2223   1.110       .  S
C2218      H2224   1.111       .  S
C2225      C2226   1.408       .  A
C2225      C2230   1.406   1_565  A
C2225      H2232   1.084       .  S
C2226      C2227   1.419       .  A
C2227      C2234   1.508       .  S
C2227      C2228   1.405   1_565  A
C2228      C2229   1.405       .  A
C2228      H2233   1.084       .  S
C2229      C2230   1.417       .  A
C2230      C2231   1.508       .  S
C2231      H2235   1.111       .  S
C2231      H2236   1.109       .  S
C2231      H2237   1.110       .  S
C2234      H2238   1.110       .  S
C2234      H2239   1.110       .  S
C2234      H2240   1.111       .  S
C2241      C2242   1.401       .  A
C2241      C2246   1.402       .  A
C2241      H2248   1.084       .  S
C2242      C2243   1.416       .  A
C2243      C2250   1.509       .  S
C2243      C2244   1.407       .  A
C2244      C2245   1.411       .  A
C2244      H2249   1.075       .  S
C2245      C2246   1.430       .  A
C2246      C2247   1.516       .  S
C2247      H2251   1.111       .  S
C2247      H2252   1.107       .  S
C2247      H2253   1.105       .  S
C2250      H2254   1.111       .  S
C2250      H2255   1.109       .  S
C2250      H2256   1.111       .  S
C2257      C2258   1.405       .  A
C2257      C2262   1.402   1_554  A
C2257      H2264   1.084       .  S
C2258      C2259   1.420       .  A
C2259      C2266   1.508       .  S
C2259      C2260   1.407   1_554  A
C2260      C2261   1.406       .  A
C2260      H2265   1.084       .  S
C2261      C2262   1.419       .  A
C2262      C2263   1.510       .  S
C2263      H2267   1.111       .  S
C2263      H2268   1.110       .  S
C2263      H2269   1.111       .  S
C2266      H2270   1.110       .  S
C2266      H2271   1.110       .  S
C2266      H2272   1.111       .  S
C2273      C2274   1.405       .  A
C2273      C2278   1.406       .  A
C2273      H2280   1.084       .  S
C2274      C2275   1.417       .  A
C2275      C2282   1.508       .  S
C2275      C2276   1.401       .  A
C2276      C2277   1.399       .  A
C2276      H2281   1.084       .  S
C2277      C2278   1.411       .  A
C2278      C2279   1.506       .  S
C2279      H2283   1.111       .  S
C2279      H2284   1.109       .  S
C2279      H2285   1.109       .  S
C2282      H2286   1.109       .  S
C2282      H2287   1.109       .  S
C2282      H2288   1.111       .  S
C2289      C2290   1.405       .  A
C2289      C2294   1.403   1_554  A
C2289      H2296   1.084       .  S
C2290      C2291   1.418       .  A
C2291      C2298   1.508       .  S
C2291      C2292   1.405   1_554  A
C2292      C2293   1.406       .  A
C2292      H2297   1.084       .  S
C2293      C2294   1.420       .  A
C2294      C2295   1.509       .  S
C2295      H2299   1.111       .  S
C2295      H2300   1.110       .  S
C2295      H2301   1.110       .  S
C2298      H2302   1.110       .  S
C2298      H2303   1.110       .  S
C2298      H2304   1.111       .  S
C2305      C2306   1.405       .  A
C2305      C2310   1.405       .  A
C2305      H2312   1.084       .  S
C2306      C2307   1.416       .  A
C2307      C2314   1.507       .  S
C2307      C2308   1.406       .  A
C2308      C2309   1.407       .  A
C2308      H2313   1.084       .  S
C2309      C2310   1.420       .  A
C2310      C2311   1.509       .  S
C2311      H2315   1.111       .  S
C2311      H2316   1.110       .  S
C2311      H2317   1.110       .  S
C2314      H2318   1.109       .  S
C2314      H2319   1.110       .  S
C2314      H2320   1.111       .  S
C2321      C2322   1.404       .  A
C2321      C2326   1.405   1_655  A
C2321      H2328   1.084       .  S
C2322      C2323   1.417       .  A
C2323      C2330   1.508       .  S
C2323      C2324   1.407   1_655  A
C2324      C2325   1.408       .  A
C2324      H2329   1.084       .  S
C2325      C2326   1.420       .  A
C2326      C2327   1.508       .  S
C2327      H2331   1.111       .  S
C2327      H2332   1.110       .  S
C2327      H2333   1.110       .  S
C2330      H2334   1.110       .  S
C2330      H2335   1.109       .  S
C2330      H2336   1.111       .  S
C2337      C2338   1.417       .  A
C2337      C2342   1.409       .  A
C2337      H2344   1.077       .  S
C2338      C2339   1.431       .  A
C2339      C2346   1.504       .  S
C2339      C2340   1.403       .  A
C2340      C2341   1.398       .  A
C2340      H2345   1.084       .  S
C2341      C2342   1.413       .  A
C2342      C2343   1.508       .  S
C2343      H2347   1.111       .  S
C2343      H2348   1.111       .  S
C2343      H2349   1.109       .  S
C2346      H2350   1.106       .  S
C2346      H2351   1.107       .  S
C2346      H2352   1.111       .  S
C2353      C2354   1.407       .  A
C2353      C2358   1.408   1_554  A
C2353      H2360   1.084       .  S
C2354      C2355   1.419       .  A
C2355      C2362   1.509       .  S
C2355      C2356   1.402   1_554  A
C2356      C2357   1.405       .  A
C2356      H2361   1.084       .  S
C2357      C2358   1.419       .  A
C2358      C2359   1.508       .  S
C2359      H2363   1.111       .  S
C2359      H2364   1.110       .  S
C2359      H2365   1.110       .  S
C2362      H2366   1.110       .  S
C2362      H2367   1.110       .  S
C2362      H2368   1.111       .  S
C2369      C2370   1.409       .  A
C2369      C2374   1.410       .  A
C2369      H2376   1.084       .  S
C2370      C2371   1.421       .  A
C2371      C2378   1.509       .  S
C2371      C2372   1.404       .  A
C2372      C2373   1.402       .  A
C2372      H2377   1.084       .  S
C2373      C2374   1.416       .  A
C2374      C2375   1.507       .  S
C2375      H2379   1.111       .  S
C2375      H2380   1.110       .  S
C2375      H2381   1.111       .  S
C2378      H2382   1.110       .  S
C2378      H2383   1.110       .  S
C2378      H2384   1.111       .  S
C2385      C2386   1.400       .  A
C2385      C2390   1.402       .  A
C2385      H2392   1.084       .  S
C2386      C2387   1.414       .  A
C2387      C2394   1.508       .  S
C2387      C2388   1.410       .  A
C2388      C2389   1.416       .  A
C2388      H2393   1.074       .  S
C2389      C2390   1.429       .  A
C2390      C2391   1.508       .  S
C2391      H2395   1.111       .  S
C2391      H2396   1.106       .  S
C2391      H2397   1.102       .  S
C2394      H2398   1.110       .  S
C2394      H2399   1.110       .  S
C2394      H2400   1.111       .  S
C2401      C2402   1.402       .  A
C2401      C2406   1.402   1_554  A
C2401      H2408   1.084       .  S
C2402      C2403   1.418       .  A
C2403      C2410   1.508       .  S
C2403      C2404   1.408   1_554  A
C2404      C2405   1.407       .  A
C2404      H2409   1.084       .  S
C2405      C2406   1.421       .  A
C2406      C2407   1.510       .  S
C2407      H2411   1.111       .  S
C2407      H2412   1.110       .  S
C2407      H2413   1.110       .  S
C2410      H2414   1.110       .  S
C2410      H2415   1.110       .  S
C2410      H2416   1.111       .  S
C2417      C2418   1.406       .  A
C2417      C2422   1.407   1_565  A
C2417      H2424   1.084       .  S
C2418      C2419   1.418       .  A
C2419      C2426   1.508       .  S
C2419      C2420   1.407   1_565  A
C2420      C2421   1.407       .  A
C2420      H2425   1.084       .  S
C2421      C2422   1.419       .  A
C2422      C2423   1.508       .  S
C2423      H2427   1.111       .  S
C2423      H2428   1.110       .  S
C2423      H2429   1.110       .  S
C2426      H2430   1.109       .  S
C2426      H2431   1.111       .  S
C2426      H2432   1.111   1_565  S
C2433      C2434   1.418       .  A
C2433      C2438   1.408       .  A
C2433      H2440   1.079       .  S
C2434      C2435   1.429       .  A
C2435      C2442   1.503       .  S
C2435      C2436   1.401       .  A
C2436      C2437   1.399       .  A
C2436      H2441   1.084       .  S
C2437      C2438   1.413       .  A
C2438      C2439   1.508       .  S
C2439      H2443   1.111       .  S
C2439      H2444   1.110       .  S
C2439      H2445   1.110       .  S
C2442      H2446   1.107       .  S
C2442      H2447   1.105       .  S
C2442      H2448   1.111       .  S
C2449      C2450   1.404       .  A
C2449      C2454   1.402   1_554  A
C2449      H2456   1.084       .  S
C2450      C2451   1.418       .  A
C2451      C2458   1.509       .  S
C2451      C2452   1.405   1_554  A
C2452      C2453   1.407       .  A
C2452      H2457   1.084       .  S
C2453      C2454   1.420       .  A
C2454      C2455   1.509       .  S
C2455      H2459   1.111       .  S
C2455      H2460   1.110       .  S
C2455      H2461   1.110       .  S
C2458      H2462   1.110       .  S
C2458      H2463   1.110       .  S
C2458      H2464   1.111       .  S
C2465      C2466   1.408       .  A
C2465      C2470   1.406       .  A
C2465      H2472   1.084       .  S
C2466      C2467   1.421       .  A
C2467      C2474   1.509       .  S
C2467      C2468   1.403       .  A
C2468      C2469   1.402       .  A
C2468      H2473   1.084       .  S
C2469      C2470   1.415       .  A
C2470      C2471   1.508       .  S
C2471      H2475   1.111       .  S
C2471      H2476   1.110       .  S
C2471      H2477   1.111       .  S
C2474      H2478   1.110       .  S
C2474      H2479   1.110       .  S
C2474      H2480   1.111       .  S
C2481      C2482   1.402       .  A
C2481      C2486   1.402   1_554  A
C2481      H2488   1.084       .  S
C2482      C2483   1.417       .  A
C2483      C2490   1.508       .  S
C2483      C2484   1.408   1_554  A
C2484      C2485   1.408       .  A
C2484      H2489   1.084       .  S
C2485      C2486   1.419       .  A
C2486      C2487   1.508       .  S
C2487      H2491   1.111       .  S
C2487      H2492   1.110       .  S
C2487      H2493   1.110       .  S
C2490      H2494   1.110       .  S
C2490      H2495   1.111       .  S
C2490      H2496   1.111       .  S
C2497      C2498   1.407       .  A
C2497      C2502   1.404       .  A
C2497      H2504   1.084       .  S
C2498      C2499   1.420       .  A
C2499      C2506   1.507       .  S
C2499      C2500   1.407       .  A
C2500      C2501   1.404       .  A
C2500      H2505   1.084       .  S
C2501      C2502   1.414       .  A
C2502      C2503   1.508       .  S
C2503      H2507   1.111       .  S
C2503      H2508   1.110       .  S
C2503      H2509   1.108       .  S
C2506      H2510   1.110       .  S
C2506      H2511   1.110       .  S
C2506      H2512   1.111       .  S
C2513      C2514   1.406       .  A
C2513      C2518   1.403   1_655  A
C2513      H2520   1.084       .  S
C2514      C2515   1.419       .  A
C2515      C2522   1.509       .  S
C2515      C2516   1.404   1_655  A
C2516      C2517   1.407       .  A
C2516      H2521   1.084       .  S
C2517      C2518   1.418       .  A
C2518      C2519   1.508       .  S
C2519      H2523   1.111       .  S
C2519      H2524   1.110       .  S
C2519      H2525   1.110       .  S
C2522      H2526   1.110       .  S
C2522      H2527   1.110       .  S
C2522      H2528   1.111       .  S
C2529      C2530   1.408       .  A
C2529      C2534   1.400       .  A
C2529      H2536   1.083       .  S
C2530      C2531   1.422       .  A
C2531      C2538   1.507       .  S
C2531      C2532   1.407       .  A
C2532      C2533   1.405       .  A
C2532      H2537   1.084       .  S
C2533      C2534   1.418       .  A
C2534      C2535   1.509       .  S
C2535      H2539   1.111       .  S
C2535      H2540   1.110       .  S
C2535      H2541   1.110       .  S
C2538      H2542   1.108       .  S
C2538      H2543   1.110       .  S
C2538      H2544   1.111       .  S
C2545      C2546   1.410       .  A
C2545      C2550   1.400       .  A
C2545      H2552   1.084       .  S
C2546      C2547   1.424       .  A
C2547      C2554   1.504       .  S
C2547      C2548   1.412       .  A
C2548      C2549   1.405       .  A
C2548      H2553   1.084       .  S
C2549      C2550   1.415       .  A
C2550      C2551   1.509       .  S
C2551      H2555   1.111       .  S
C2551      H2556   1.110       .  S
C2551      H2557   1.110       .  S
C2554      H2558   1.109       .  S
C2554      H2559   1.110       .  S
C2554      H2560   1.111       .  S
C2561      C2562   1.400       .  A
C2561      C2566   1.406       .  A
C2561      H2568   1.085       .  S
C2562      C2563   1.419       .  A
C2563      C2570   1.506       .  S
C2563      C2564   1.406       .  A
C2564      C2565   1.402       .  A
C2564      H2569   1.081       .  S
C2565      C2566   1.421       .  A
C2566      C2567   1.508       .  S
C2567      H2571   1.111       .  S
C2567      H2572   1.108       .  S
C2567      H2573   1.110       .  S
C2570      H2574   1.103       .  S
C2570      H2575   1.110       .  S
C2570      H2576   1.111       .  S
C2577      C2578   1.403       .  A
C2577      C2582   1.414       .  A
C2577      H2584   1.084       .  S
C2578      C2579   1.412       .  A
C2579      C2586   1.508       .  S
C2579      C2580   1.399       .  A
C2580      C2581   1.406       .  A
C2580      H2585   1.084       .  S
C2581      C2582   1.422       .  A
C2582      C2583   1.506       .  S
C2583      H2587   1.111       .  S
C2583      H2588   1.110       .  S
C2583      H2589   1.110       .  S
C2586      H2590   1.106       .  S
C2586      H2591   1.111       .  S
C2586      H2592   1.110       .  S
C2593      C2594   1.402       .  A
C2593      C2598   1.403       .  A
C2593      H2600   1.083       .  S
C2594      C2595   1.420       .  A
C2595      C2602   1.510       .  S
C2595      C2596   1.400       .  A
C2596      C2597   1.403       .  A
C2596      H2601   1.081       .  S
C2597      C2598   1.421       .  A
C2598      C2599   1.508       .  S
C2599      H2603   1.111       .  S
C2599      H2604   1.110       .  S
C2599      H2605   1.108       .  S
C2602      H2606   1.110       .  S
C2602      H2607   1.107       .  S
C2602      H2608   1.111       .  S
C2609      C2610   1.413       .  A
C2609      C2614   1.407       .  A
C2609      H2616   1.074       .  S
C2610      C2611   1.431       .  A
C2611      C2618   1.516       .  S
C2611      C2612   1.407       .  A
C2612      C2613   1.403       .  A
C2612      H2617   1.084       .  S
C2613      C2614   1.416       .  A
C2614      C2615   1.509       .  S
C2615      H2619   1.111       .  S
C2615      H2620   1.110       .  S
C2615      H2621   1.110       .  S
C2618      H2622   1.106       .  S
C2618      H2623   1.106       .  S
C2618      H2624   1.111       .  S
C2625      C2626   1.403       .  A
C2625      C2630   1.399       .  A
C2625      H2632   1.084       .  S
C2626      C2627   1.413       .  A
C2627      C2634   1.506       .  S
C2627      C2628   1.406       .  A
C2628      C2629   1.402       .  A
C2628      H2633   1.082       .  S
C2629      C2630   1.413       .  A
C2630      C2631   1.508       .  S
C2631      H2635   1.111       .  S
C2631      H2636   1.110       .  S
C2631      H2637   1.107       .  S
C2634      H2638   1.108       .  S
C2634      H2639   1.108       .  S
C2634      H2640   1.111       .  S
C2641      C2642   1.400       .  A
C2641      C2646   1.410       .  A
C2641      H2648   1.082       .  S
C2642      C2643   1.418       .  A
C2643      C2650   1.514       .  S
C2643      C2644   1.401       .  A
C2644      C2645   1.412       .  A
C2644      H2649   1.078       .  S
C2645      C2646   1.432       .  A
C2646      C2647   1.508       .  S
C2647      H2651   1.111       .  S
C2647      H2652   1.107       .  S
C2647      H2653   1.106       .  S
C2650      H2654   1.110       .  S
C2650      H2655   1.107       .  S
C2650      H2656   1.111       .  S
C2657      C2658   1.399       .  A
C2657      C2662   1.398       .  A
C2657      H2664   1.085       .  S
C2658      C2659   1.417       .  A
C2659      C2666   1.508       .  S
C2659      C2660   1.409       .  A
C2660      C2661   1.412       .  A
C2660      H2665   1.076       .  S
C2661      C2662   1.431       .  A
C2662      C2663   1.515       .  S
C2663      H2667   1.110       .  S
C2663      H2668   1.111       .  S
C2663      H2669   1.099       .  S
C2666      H2670   1.110       .  S
C2666      H2671   1.110       .  S
C2666      H2672   1.111       .  S
C2673      C2674   1.412       .  A
C2673      C2678   1.408   1_554  A
C2673      H2680   1.084       .  S
C2674      C2675   1.421       .  A
C2675      C2682   1.505       .  S
C2675      C2676   1.405   1_554  A
C2676      C2677   1.399       .  A
C2676      H2681   1.084       .  S
C2677      C2678   1.408       .  A
C2678      C2679   1.506       .  S
C2679      H2683   1.111       .  S
C2679      H2684   1.109       .  S
C2679      H2685   1.111       .  S
C2682      H2686   1.106       .  S
C2682      H2687   1.103       .  S
C2682      H2688   1.111       .  S
C2689      C2690   1.412       .  A
C2689      C2694   1.407       .  A
C2689      H2696   1.076       .  S
C2690      C2691   1.426       .  A
C2691      C2698   1.512       .  S
C2691      C2692   1.403       .  A
C2692      C2693   1.402       .  A
C2692      H2697   1.084       .  S
C2693      C2694   1.415       .  A
C2694      C2695   1.508       .  S
C2695      H2699   1.111       .  S
C2695      H2700   1.109       .  S
C2695      H2701   1.111       .  S
C2698      H2702   1.102       .  S
C2698      H2703   1.107       .  S
C2698      H2704   1.111       .  S
C2705      C2706   1.407       .  A
C2705      C2710   1.412       .  A
C2705      H2712   1.082       .  S
C2706      C2707   1.418       .  A
C2707      C2714   1.508       .  S
C2707      C2708   1.394       .  A
C2708      C2709   1.398       .  A
C2708      H2713   1.084       .  S
C2709      C2710   1.410       .  A
C2710      C2711   1.504       .  S
C2711      H2715   1.111       .  S
C2711      H2716   1.109       .  S
C2711      H2717   1.110       .  S
C2714      H2718   1.102       .  S
C2714      H2719   1.110       .  S
C2714      H2720   1.111       .  S
C2721      C2722   1.413       .  A
C2721      C2726   1.407       .  A
C2721      H2728   1.083       .  S
C2722      C2723   1.413       .  A
C2723      C2730   1.506       .  S
C2723      C2724   1.401       .  A
C2724      C2725   1.409       .  A
C2724      H2729   1.083       .  S
C2725      C2726   1.414       .  A
C2726      C2727   1.507       .  S
C2727      H2731   1.111       .  S
C2727      H2732   1.110       .  S
C2727      H2733   1.105       .  S
C2730      H2734   1.110       .  S
C2730      H2735   1.104       .  S
C2730      H2736   1.111       .  S
C2737      C2738   1.415       .  A
C2737      C2742   1.401       .  A
C2737      H2744   1.083       .  S
C2738      C2739   1.430       .  A
C2739      C2746   1.500       .  S
C2739      C2740   1.407       .  A
C2740      C2741   1.401       .  A
C2740      H2745   1.084       .  S
C2741      C2742   1.412       .  A
C2742      C2743   1.509       .  S
C2743      H2747   1.111       .  S
C2743      H2748   1.110       .  S
C2743      H2749   1.110       .  S
C2746      H2750   1.109       .  S
C2746      H2751   1.104       .  S
C2746      H2752   1.111       .  S
C2753      C2754   1.408       .  A
C2753      C2758   1.410   1_554  A
C2753      H2760   1.084       .  S
C2754      C2755   1.418       .  A
C2755      C2762   1.501       .  S
C2755      C2756   1.408   1_554  A
C2756      C2757   1.403       .  A
C2756      H2761   1.083       .  S
C2757      C2758   1.415       .  A
C2758      C2759   1.507       .  S
C2759      H2763   1.111       .  S
C2759      H2764   1.108       .  S
C2759      H2765   1.110       .  S
C2762      H2766   1.105       .  S
C2762      H2767   1.108       .  S
C2762      H2768   1.111       .  S
C2769      C2770   1.403       .  A
C2769      C2774   1.396       .  A
C2769      H2776   1.085       .  S
C2770      C2771   1.417       .  A
C2771      C2778   1.507       .  S
C2771      C2772   1.412       .  A
C2772      C2773   1.404       .  A
C2772      H2777   1.084       .  S
C2773      C2774   1.419       .  A
C2774      C2775   1.512       .  S
C2775      H2779   1.111       .  S
C2775      H2780   1.110       .  S
C2775      H2781   1.106       .  S
C2778      H2782   1.110       .  S
C2778      H2783   1.106       .  S
C2778      H2784   1.111       .  S
C2785      C2786   1.403       .  A
C2785      C2790   1.407       .  A
C2785      H2792   1.084       .  S
C2786      C2787   1.411       .  A
C2787      C2794   1.504       .  S
C2787      C2788   1.400       .  A
C2788      C2789   1.404       .  A
C2788      H2793   1.084       .  S
C2789      C2790   1.417       .  A
C2790      C2791   1.506       .  S
C2791      H2795   1.111       .  S
C2791      H2796   1.110       .  S
C2791      H2797   1.110       .  S
C2794      H2798   1.109       .  S
C2794      H2799   1.107       .  S
C2794      H2800   1.111       .  S
C2801      C2802   1.410       .  A
C2801      C2806   1.411       .  A
C2801      H2808   1.084       .  S
C2802      C2803   1.416       .  A
C2803      C2810   1.506       .  S
C2803      C2804   1.399       .  A
C2804      C2805   1.408       .  A
C2804      H2809   1.083       .  S
C2805      C2806   1.418       .  A
C2806      C2807   1.506       .  S
C2807      H2811   1.111       .  S
C2807      H2812   1.107       .  S
C2807      H2813   1.110       .  S
C2810      H2814   1.102       .  S
C2810      H2815   1.110       .  S
C2810      H2816   1.111       .  S
C2817      C2818   1.404       .  A
C2817      C2822   1.404       .  A
C2817      H2824   1.082       .  S
C2818      C2819   1.409       .  A
C2819      C2826   1.505       .  S
C2819      C2820   1.396       .  A
C2820      C2821   1.402       .  A
C2820      H2825   1.084       .  S
C2821      C2822   1.413       .  A
C2822      C2823   1.508       .  S
C2823      H2827   1.107       .  S
C2823      H2828   1.110       .  S
C2823      H2829   1.111       .  S
C2826      H2830   1.110       .  S
C2826      H2831   1.107       .  S
C2826      H2832   1.111       .  S
C2833      C2834   1.406       .  A
C2833      C2838   1.401       .  A
C2833      H2840   1.079       .  S
C2834      C2835   1.434       .  A
C2835      C2842   1.511       .  S
C2835      C2836   1.408       .  A
C2836      C2837   1.398       .  A
C2836      H2841   1.084       .  S
C2837      C2838   1.422       .  A
C2838      C2839   1.508       .  S
C2839      H2843   1.111       .  S
C2839      H2844   1.110       .  S
C2839      H2845   1.106       .  S
C2842      H2846   1.109       .  S
C2842      H2847   1.107       .  S
C2842      H2848   1.111       .  S
