geometry optimzed in LAMMPS
_audit_creation_date              2020-11-30 
_audit_creation_method            'lammps2cif' 
_symmetry_space_group_name_H-M    'P1' 
_symmetry_Int_Tables_number       1 
_symmetry_cell_setting            triclinic 
loop_ 
_symmetry_equiv_pos_as_xyz 
  x,y,z 
_cell_length_a                    36.02609236321828 
_cell_length_b                    36.29418445196979 
_cell_length_c                    39.3270472835392 
_cell_angle_alpha                 90.05244297900903 
_cell_angle_beta                  90.58020820708853 
_cell_angle_gamma                 93.04711731436743 
loop_ 
_atom_site_label 
_atom_site_type_symbol 
_atom_site_fract_x 
_atom_site_fract_y 
_atom_site_fract_z 
_atom_site_charge 
O1          O  0.41513984  0.46744154  0.48378280    -0.80060
O2          O  0.07470651  0.03276637  0.47936549    -0.80080
O3          O  0.45244529  0.07848107  0.47854292    -0.80090
O4          O  0.99953870  0.43810786  0.44632039    -0.80030
O5          O  0.00858306  0.06357535  0.46445845    -0.80160
O6          O  0.46213692  0.41150866  0.48339232    -0.80080
O7          O  0.04935760  0.49318688  0.44509790    -0.80060
O8          O  0.44485028  0.00885350  0.45205917    -0.80100
C9          C  0.41682683  0.48686891  0.45670208     1.09630
C10         C  0.07573219  0.01593889  0.45126492     1.09510
C11         C  0.48116813  0.08489537  0.46087933     1.09650
C12         C  0.97750749  0.41197942  0.45454120     1.09530
O13         O  0.49022205  0.43312946  0.54989950    -0.80060
O14         O  0.04458888  0.08174573  0.52327988    -0.80140
O15         O  0.42035290  0.02645091  0.51782850    -0.80070
O16         O  0.07820978  0.47151938  0.51312165    -0.80050
O17         O  0.05188363  0.01147631  0.54641298    -0.80110
O18         O  0.44139966  0.48729948  0.55295546    -0.80070
O19         O  0.02744322  0.41149160  0.51147194    -0.80030
O20         O  0.48766409  0.06103766  0.53632622    -0.80100
Co21       Co  0.45494842  0.45234280  0.51711449     1.51530
Co22       Co  0.02750992  0.03481002  0.50697662     1.51690
Co23       Co  0.46870387  0.03261194  0.49277136     1.51570
Co24       Co  0.03638614  0.45569313  0.47977892     1.51470
O25         O  0.49696811  0.48714580  0.49974180    -1.42000
C26         C  0.01108241  0.40860441  0.54006801     1.09560
C27         C  0.51553098  0.08467509  0.54070260     1.09650
C28         C  0.41629788  0.50865675  0.54513887     1.09580
C29         C  0.07820002  0.99053753  0.54054869     1.09560
C30         C  0.47930207  0.21360386  0.37583196     0.03210
C31         C  0.47958942  0.24711982  0.39321501    -0.12940
C32         C  0.48248774  0.28028236  0.37531217     0.00710
C33         C  0.48596471  0.28004614  0.33991419    -0.11470
C34         C  0.48671342  0.24636616  0.32251883     0.03200
C35         C  0.48234996  0.21318249  0.34048911    -0.10890
H36         H  0.47785249  0.24742623  0.42073312     0.08790
H37         H  0.48865153  0.30585364  0.32609155     0.06320
H38         H  0.48148423  0.18705900  0.32707872     0.06170
C39         C  0.27943485  0.49427910  0.37687117     0.03210
C40         C  0.24730658  0.50400964  0.39440635    -0.12940
C41         C  0.21479496  0.51293797  0.37657249     0.00710
C42         C  0.21516521  0.51270450  0.34075238    -0.11470
C43         C  0.24609571  0.50134574  0.32277094     0.03200
C44         C  0.27815383  0.49255648  0.34110787    -0.10890
H45         H  0.24741283  0.00343304  0.42185283     0.08790
H46         H  0.19075578  0.52049977  0.32682388     0.06320
H47         H  0.30228813  0.48416546  0.32744487     0.06170
C48         C  0.27927760  0.49845904  0.62365164     0.03210
C49         C  0.28122122  0.50569079  0.65857266    -0.12940
C50         C  0.24899539  0.50465555  0.67844630     0.00710
C51         C  0.21400504  0.49851885  0.66247793    -0.11470
C52         C  0.21109854  0.49219252  0.62720564     0.03200
C53         C  0.24428194  0.49130021  0.60827570    -0.10890
H54         H  0.30808645  0.51187232  0.67044954     0.08790
H55         H  0.18941554  0.50021730  0.67747520     0.06320
H56         H  0.24282968  0.98613472  0.58112301     0.06170
C57         C  0.50341985  0.21288917  0.62453231     0.03210
C58         C  0.51023368  0.24628989  0.60758360    -0.12940
C59         C  0.51236007  0.27961814  0.62561273     0.00710
C60         C  0.50910303  0.27918497  0.66117957    -0.11470
C61         C  0.50351729  0.24537388  0.67844677     0.03200
C62         C  0.49923346  0.21252967  0.65974816    -0.10890
H63         H  0.51326462  0.24641727  0.58016631     0.08790
H64         H  0.51050180  0.30489097  0.67526059     0.06320
H65         H  0.49299856  0.18657677  0.67255161     0.06170
C66         C  0.24515274  0.47697242  0.11906691     0.03210
C67         C  0.24528302  0.47543573  0.15492177    -0.12940
C68         C  0.24354880  0.50770049  0.17460526     0.00710
C69         C  0.24029068  0.04168745  0.15799602    -0.11470
C70         C  0.24066002  0.04366739  0.12230006     0.03200
C71         C  0.24345233  0.51136893  0.10305309    -0.10890
H72         H  0.24767144  0.44912854  0.16755017     0.08790
H73         H  0.23776019  0.06661429  0.17275971     0.06320
H74         H  0.24534857  0.51331314  0.07565603     0.06170
O75         O  0.28795068  0.33263167  0.02394480    -0.80060
O76         O  0.21018424  0.17823477  0.01790993    -0.80080
O77         O  0.18756457  0.26256326  0.05362051    -0.80090
O78         O  0.32379290  0.20316048  0.02203582    -0.80030
O79         O  0.15861244  0.22933819  0.01431237    -0.80160
O80         O  0.31832087  0.26115705  0.03632804    -0.80080
O81         O  0.25461941  0.20476061  0.04987364    -0.80060
O82         O  0.24445092  0.31163842  0.05712588    -0.80100
C83         C  0.26795599  0.33715144  0.05003788     1.09630
C84         C  0.22999579  0.17885511  0.04505029     1.09510
C85         C  0.16007332  0.24273837  0.04423743     1.09650
C86         C  0.33559957  0.23049225  0.03922367     1.09450
O87         O  0.33485723  0.29766980  0.97781767    -0.80060
O88         O  0.18936699  0.25488594  0.94894842    -0.80140
O89         O  0.22525354  0.33920608  0.98995178    -0.80070
O90         O  0.27088747  0.17657300  0.98565633    -0.80050
O91         O  0.23503733  0.19900311  0.94797572    -0.80110
O92         O  0.26440069  0.31138249  0.95730032    -0.80070
O93         O  0.30881149  0.24188897  0.96572627    -0.80030
O94         O  0.16486131  0.29065133  0.98667071    -0.80100
Co95       Co  0.28763249  0.28460598  0.99570706     1.51530
Co96       Co  0.20086694  0.21800710  0.98286088     1.51690
Co97       Co  0.20740909  0.29842755  0.02132380     1.51570
Co98       Co  0.28014165  0.22525730  0.00936336     1.51470
O99         O  0.23790447  0.25727977  0.00255001    -1.42000
C100        C  0.33441672  0.26771217  0.96093649     1.09560
C101        C  0.16479591  0.27627219  0.95693075     1.09650
C102        C  0.24450162  0.33862313  0.96316126     1.09580
C103        C  0.25544432  0.17368448  0.95700217     1.09560
C104        C  0.02803685  0.22950030  0.12458115     0.03210
C105        C  0.02620297  0.23961096  0.15889451    -0.12940
C106        C  0.49365577  0.23212968  0.17741091     0.00710
C107        C  0.46217358  0.21596030  0.16083222    -0.11470
C108        C  0.46316405  0.20806525  0.12598505     0.03200
C109        C  0.49683391  0.21200306  0.10885147    -0.10890
H110        H  0.04988882  0.25383798  0.17119496     0.08790
H111        H  0.43615338  0.21218415  0.17423464     0.06320
H112        H  0.49752985  0.20532641  0.08206683     0.06170
C113        C  0.26355999  0.47103178  0.88013521     0.03210
C114        C  0.26009715  0.47064929  0.84457856    -0.12940
C115        C  0.26289774  0.50373596  0.82591060     0.00710
C116        C  0.26670732  0.03755501  0.84350801    -0.11470
C117        C  0.26926138  0.03858451  0.87913915     0.03200
C118        C  0.26821803  0.50499596  0.89719648    -0.10890
H119        H  0.25418631  0.44466361  0.83165890     0.08790
H120        H  0.26638388  0.06309371  0.82942308     0.06320
H121        H  0.26960878  0.50530144  0.92474988     0.06170
C122        C  0.03033464  0.25360050  0.87781466     0.03210
C123        C  0.02863755  0.25048265  0.84236988    -0.12940
C124        C  0.49451630  0.24300774  0.82542740     0.00710
C125        C  0.46225824  0.23642721  0.84480724    -0.11470
C126        C  0.46277232  0.24275294  0.88017710     0.03200
C127        C  0.49705727  0.25238876  0.89613849    -0.10890
H128        H  0.05401269  0.25355437  0.82788585     0.08790
H129        H  0.43668028  0.22700812  0.83235647     0.06320
H130        H  0.49818406  0.25878543  0.92298723     0.06170
C131        C  0.28703423  0.13807446  0.91220627    -0.05700
C132        C  0.25857974  0.13966779  0.93621211     0.00220
C133        C  0.23452309  0.10801864  0.94130405    -0.08350
C134        C  0.23891688  0.07631739  0.92167438    -0.05730
C135        C  0.26746504  0.07424350  0.89797186     0.00210
C136        C  0.29243980  0.10555250  0.89332274    -0.08260
C137        C  0.32487573  0.10532592  0.86900816     0.62120
H138        H  0.30539650  0.16233836  0.90864190     0.12810
H139        H  0.22009883  0.05236846  0.92502722     0.12830
C140        C  0.20522378  0.10700030  0.96848169     0.62350
F141        F  0.35300495  0.13063065  0.87900810    -0.22810
F142        F  0.31300562  0.11467997  0.83677717    -0.20140
F143        F  0.33982770  0.07101948  0.86800809    -0.19820
F144        F  0.18243275  0.13611584  0.96399925    -0.19870
F145        F  0.22280740  0.10934248  0.99979156    -0.20190
F146        F  0.18307975  0.07462145  0.96783768    -0.22870
C147        C  0.28179569  0.38097231  0.92583809    -0.05700
C148        C  0.24711418  0.37199218  0.94068199     0.00220
C149        C  0.21791213  0.39671974  0.93590528    -0.08350
C150        C  0.22420004  0.42774641  0.91469476    -0.05730
C151        C  0.25878292  0.43618594  0.89988480     0.00210
C152        C  0.28833711  0.41290530  0.90598868    -0.08260
C153        C  0.32698301  0.42259474  0.89267899     0.62120
H154        H  0.30458852  0.36381344  0.93160619     0.12810
H155        H  0.20253319  0.44687283  0.91064234     0.12830
C156        C  0.18129143  0.39306628  0.95485068     0.62350
F157        F  0.35227975  0.39721264  0.90269982    -0.22810
F158        F  0.33939753  0.45689341  0.90481255    -0.20140
F159        F  0.32608241  0.42336830  0.85762148    -0.19820
F160        F  0.18764057  0.40209394  0.98849724    -0.19870
F161        F  0.16550999  0.35775733  0.95289762    -0.20190
F162        F  0.15551141  0.41650364  0.94197030    -0.22870
C163        C  0.38141567  0.18922536  0.06555176    -0.05700
C164        C  0.36785519  0.22509409  0.06281376     0.00220
C165        C  0.38623139  0.25398510  0.08159980    -0.08350
C166        C  0.41621407  0.24635712  0.10269325    -0.05730
C167        C  0.42905483  0.21092479  0.10558350     0.00210
C168        C  0.41209575  0.18174886  0.08647713    -0.08260
C169        C  0.42629013  0.14320178  0.08850112     0.62120
H170        H  0.36810423  0.16687825  0.05098050     0.12810
H171        H  0.43080392  0.26844901  0.11666919     0.12830
C172        C  0.37376416  0.29254327  0.08032720     0.62350
F173        F  0.40538771  0.11836771  0.06846974    -0.22810
F174        F  0.42485893  0.13103657  0.12180125    -0.20140
F175        F  0.46260093  0.14345826  0.07749370    -0.19820
F176        F  0.33750577  0.29119955  0.09101092    -0.19870
F177        F  0.37648083  0.30583559  0.04741911    -0.20190
F178        F  0.39452489  0.31641468  0.10150526    -0.22870
C179        C  0.09339685  0.24831570  0.05136779    -0.05700
C180        C  0.12747437  0.24049375  0.06631073     0.00220
C181        C  0.12988090  0.23518627  0.10202592    -0.08350
C182        C  0.09661239  0.23078869  0.12012514    -0.05730
C183        C  0.06224926  0.23774373  0.10488771     0.00210
C184        C  0.06142522  0.25060224  0.07083956    -0.08260
C185        C  0.02888295  0.26924021  0.05458943     0.62120
H186        H  0.09242052  0.25606030  0.02480168     0.12810
H187        H  0.09735599  0.22243533  0.14651918     0.12830
C188        C  0.16676704  0.23571321  0.12137293     0.62350
F189        F  0.04177878  0.30071527  0.03762165    -0.22810
F190        F  0.00346394  0.28013095  0.07819601    -0.20140
F191        F  0.01127265  0.24553641  0.03135243    -0.19820
F192        F  0.18350676  0.27086479  0.12018555    -0.19870
F193        F  0.19038795  0.21119822  0.10746910    -0.20190
F194        F  0.16197418  0.22650529  0.15526396    -0.22870
C195        C  0.39646672  0.25927509  0.88443971    -0.05700
C196        C  0.42732157  0.24323528  0.89974044     0.00220
C197        C  0.42436363  0.23186462  0.93428888    -0.08350
C198        C  0.39481612  0.24336798  0.95355569    -0.05730
C199        C  0.36509690  0.26027410  0.93845849     0.00210
C200        C  0.36427819  0.26581597  0.90300025    -0.08260
C201        C  0.32967309  0.27809298  0.88509654     0.62120
H202        H  0.39777830  0.26742761  0.85804938     0.12810
H203        H  0.39380791  0.23701242  0.98052791     0.12830
C204        C  0.44986433  0.20601673  0.95170750     0.62350
F205        F  0.33424776  0.28029638  0.85023068    -0.22810
F206        F  0.32117644  0.31235438  0.89688582    -0.20140
F207        F  0.30025021  0.25308131  0.89148341    -0.19820
F208        F  0.47354942  0.22609704  0.97339603    -0.19870
F209        F  0.46961495  0.18665473  0.92853708    -0.20190
F210        F  0.42932907  0.18028670  0.97073716    -0.22870
C211        C  0.10285922  0.24974830  0.94722987    -0.05700
C212        C  0.13100984  0.27447317  0.93567195     0.00220
C213        C  0.12945204  0.28679453  0.90143307    -0.08350
C214        C  0.09517748  0.28222963  0.88383109    -0.05730
C215        C  0.06664304  0.25791800  0.89611494     0.00210
C216        C  0.07386796  0.23734337  0.92574974    -0.08260
C217        C  0.05695635  0.19900185  0.93261771     0.62120
H218        H  0.10670925  0.23532025  0.97095791     0.12810
H219        H  0.09148152  0.29562730  0.85955522     0.12830
C220        C  0.16406127  0.29979202  0.88216594     0.62350
F221        F  0.08520567  0.17495269  0.93689357    -0.22810
F222        F  0.03495960  0.18551172  0.90596756    -0.20140
F223        F  0.03672032  0.19912550  0.96218879    -0.19820
F224        F  0.18805404  0.27134433  0.88058205    -0.19870
F225        F  0.18206586  0.32955799  0.89793734    -0.20190
F226        F  0.15566778  0.30994728  0.84915805    -0.22870
C227        C  0.26495282  0.13555397  0.07950171    -0.05700
C228        C  0.22988428  0.14584878  0.06781624     0.00220
C229        C  0.19798274  0.12223074  0.07501132    -0.08350
C230        C  0.20271952  0.08992252  0.09420174    -0.05730
C231        C  0.23789754  0.07955231  0.10474736     0.00210
C232        C  0.26964753  0.10220900  0.09676957    -0.08260
C233        C  0.30845005  0.09029300  0.10498159     0.62120
H234        H  0.28927769  0.15286016  0.07314517     0.12810
H235        H  0.17903901  0.07152803  0.10012600     0.12830
C236        C  0.15909780  0.13008022  0.06262563     0.62350
F237        F  0.33552927  0.11638563  0.09509855    -0.22810
F238        F  0.31452056  0.05764693  0.08827591    -0.20140
F239        F  0.31232561  0.08504362  0.13949258    -0.19820
F240        F  0.15658339  0.12671723  0.02778045    -0.19870
F241        F  0.15060366  0.16512426  0.07171827    -0.20190
F242        F  0.13232563  0.10592686  0.07648440    -0.22870
C243        C  0.28348072  0.42483480  0.10547869    -0.05700
C244        C  0.25092531  0.44290864  0.09892566     0.00220
C245        C  0.22425206  0.42670866  0.07587321    -0.08350
C246        C  0.23146183  0.39257464  0.06040047    -0.05730
C247        C  0.26440969  0.37432776  0.06674807     0.00210
C248        C  0.29023923  0.39066532  0.09055253    -0.08260
C249        C  0.32298665  0.37074548  0.10285270     0.62120
H250        H  0.30311085  0.43727184  0.12368962     0.12810
H251        H  0.21093209  0.37942752  0.04358906     0.12830
C252        C  0.18807488  0.44483792  0.06814358     0.62350
F253        F  0.34582850  0.39171033  0.12478504    -0.22810
F254        F  0.34365650  0.36170114  0.07510340    -0.20140
F255        F  0.30972701  0.33994327  0.12040527    -0.19820
F256        F  0.19510819  0.47590132  0.04845630    -0.19870
F257        F  0.17129240  0.45480100  0.09800846    -0.20190
F258        F  0.16316135  0.42139634  0.05054575    -0.22870
C259        C  0.47364265  0.26339715  0.73185245    -0.05700
C260        C  0.50135231  0.24411125  0.71598917     0.00220
C261        C  0.02647416  0.22439772  0.73601263    -0.08350
C262        C  0.02113786  0.22258010  0.77127470    -0.05730
C263        C  0.49366155  0.24214069  0.78750380     0.00210
C264        C  0.46986347  0.26374692  0.76743911    -0.08260
C265        C  0.44121936  0.28806276  0.78276387     0.62120
H266        H  0.45496047  0.27845482  0.71597282     0.12810
H267        H  0.03930193  0.20647283  0.78671056     0.12830
C268        C  0.06023776  0.20730016  0.72077528     0.62350
F269        F  0.42939238  0.31368352  0.75951837    -0.22810
F270        F  0.45610877  0.30744617  0.81043160    -0.20140
F271        F  0.41038952  0.26661210  0.79260255    -0.19820
F272        F  0.07836304  0.23221500  0.69918302    -0.19870
F273        F  0.04961210  0.17564148  0.70292062    -0.20190
F274        F  0.08545776  0.19787137  0.74567384    -0.22870
C275        C  0.27855109  0.48463091  0.73176192    -0.05700
C276        C  0.25281016  0.50719644  0.71618778     0.00220
C277        C  0.23148127  0.02988684  0.73699590    -0.08350
C278        C  0.23407278  0.02610365  0.77254943    -0.05730
C279        C  0.25995551  0.50358260  0.78805758     0.00210
C280        C  0.28381636  0.48370371  0.76715517    -0.08260
C281        C  0.31531682  0.46194244  0.78136209     0.62120
H282        H  0.29470342  0.46725307  0.71585843     0.12810
H283        H  0.21650677  0.04204351  0.78851390     0.12830
C284        C  0.20701954  0.05946299  0.72339191     0.62350
F285        F  0.34157909  0.45586516  0.75678165    -0.22810
F286        F  0.30141864  0.42801104  0.79269775    -0.20140
F287        F  0.33336031  0.48101037  0.80773096    -0.19820
F288        F  0.17012993  0.04715310  0.72544094    -0.19870
F289        F  0.21504794  0.06909953  0.69017560    -0.20190
F290        F  0.21236017  0.09117779  0.74281352    -0.22870
C291        C  0.27514404  0.01832444  0.26749547    -0.05700
C292        C  0.24560488  0.49998525  0.28469749     0.00220
C293        C  0.21647005  0.48196464  0.26520897    -0.08350
C294        C  0.21627047  0.48623204  0.22954117    -0.05730
C295        C  0.24528363  0.50558925  0.21252604     0.00210
C296        C  0.27600565  0.02062904  0.23175748    -0.08260
C297        C  0.30960195  0.03943500  0.21494357     0.62120
H298        H  0.29740424  0.03172627  0.28239741     0.12810
H299        H  0.19343925  0.47382623  0.21462243     0.12830
C300        C  0.18569391  0.45739276  0.28076619     0.62350
F301        F  0.33934603  0.04416568  0.23738743    -0.22810
F302        F  0.30053587  0.07379036  0.20357491    -0.20140
F303        F  0.32098984  0.51850766  0.18791633    -0.19820
F304        F  0.15464798  0.97754163  0.28550255    -0.19870
F305        F  0.19644311  0.44256640  0.31148116    -0.20190
F306        F  0.17614671  0.42808679  0.25928074    -0.22870
C307        C  0.02204868  0.22766692  0.23433209    -0.05700
C308        C  0.49318661  0.24078993  0.21416748     0.00220
C309        C  0.46447501  0.25986676  0.22980719    -0.08350
C310        C  0.46292733  0.26033329  0.26538629    -0.05730
C311        C  0.49090219  0.24567160  0.28539902     0.00210
C312        C  0.02212198  0.23100997  0.26981221    -0.08260
C313        C  0.05575996  0.21987307  0.29027302     0.62120
H314        H  0.04430100  0.21391978  0.22210093     0.12810
H315        H  0.43993816  0.27282802  0.27776477     0.12830
C316        C  0.43579618  0.28098827  0.21044418     0.62350
F317        F  0.08537206  0.21291579  0.26945905    -0.22810
F318        F  0.04713114  0.18828499  0.30873767    -0.20140
F319        F  0.06720239  0.24808576  0.31228539    -0.19820
F320        F  0.40225371  0.26062713  0.20975419    -0.19870
F321        F  0.44663786  0.28909448  0.17758563    -0.20190
F322        F  0.43075407  0.31426315  0.22655569    -0.22870
C323        C  0.48114765  0.32132391  0.58755280    -0.05700
C324        C  0.51329250  0.31436070  0.60601929     0.00220
C325        C  0.04591295  0.33724737  0.60162828    -0.08350
C326        C  0.04476333  0.36763447  0.57923960    -0.05730
C327        C  0.51232125  0.37459379  0.56072007     0.00210
C328        C  0.48019162  0.35041720  0.56428092    -0.08260
C329        C  0.44589404  0.35298298  0.54177411     0.62120
H330        H  0.45708872  0.30246018  0.59055290     0.12810
H331        H  0.06898134  0.38624285  0.57622559     0.12830
C332        C  0.08158615  0.32907833  0.62020434     0.62350
F333        F  0.41799331  0.32699520  0.55025311    -0.22810
F334        F  0.45555039  0.34638107  0.50851363    -0.20140
F335        F  0.43137745  0.38730897  0.54456847    -0.19820
F336        F  0.09075434  0.29328367  0.61350358    -0.19870
F337        F  0.07684757  0.33321597  0.65481951    -0.20190
F338        F  0.11100148  0.35247876  0.61017940    -0.22870
C339        C  0.47803267  0.13107470  0.56769491    -0.05700
C340        C  0.51270262  0.11521955  0.56522497     0.00220
C341        C  0.04338515  0.12999952  0.58471719    -0.08350
C342        C  0.03852753  0.16126689  0.60483141    -0.05730
C343        C  0.50452716  0.17807355  0.60565982     0.00210
C344        C  0.47349311  0.16270232  0.58748513    -0.08260
C345        C  0.43609718  0.18000065  0.58879419     0.62120
H346        H  0.45481754  0.11940961  0.55283770     0.12810
H347        H  0.06169765  0.17379567  0.61920856     0.12830
C348        C  0.08123436  0.11357433  0.58422080     0.62350
F349        F  0.40915134  0.15993119  0.57019733    -0.22810
F350        F  0.43913926  0.21533582  0.57563451    -0.20140
F351        F  0.42444885  0.18159655  0.62213876    -0.19820
F352        F  0.09814090  0.12148283  0.55351395    -0.19870
F353        F  0.07747043  0.07578629  0.58877858    -0.20190
F354        F  0.10435763  0.12792661  0.60985719    -0.22870
C355        C  0.01096810  0.36186004  0.43059095    -0.05700
C356        C  0.47702916  0.37874874  0.43350728     0.00220
C357        C  0.44519811  0.36447316  0.41583681    -0.08350
C358        C  0.44811628  0.33229550  0.39638417    -0.05730
C359        C  0.48195627  0.31506808  0.39410734     0.00210
C360        C  0.01406759  0.33003446  0.41100672    -0.08260
C361        C  0.05131836  0.31252935  0.40821723     0.62120
H362        H  0.03505899  0.37374579  0.44413766     0.12810
H363        H  0.42409843  0.32024307  0.38289087     0.12830
C364        C  0.40919387  0.38410678  0.41644519     0.62350
F365        F  0.07938895  0.33303638  0.42499612    -0.22810
F366        F  0.06098438  0.30993603  0.37438870    -0.20140
F367        F  0.04911843  0.27763050  0.42233681    -0.19820
F368        F  0.41533825  0.41925014  0.40347543    -0.19870
F369        F  0.39665867  0.38633842  0.44945318    -0.20190
F370        F  0.38166665  0.36597796  0.39699355    -0.22870
C371        C  0.44815247  0.13356216  0.43130973    -0.05700
C372        C  0.48171235  0.11576205  0.43600298     0.00220
C373        C  0.01399051  0.12913924  0.41826347    -0.08350
C374        C  0.01158279  0.16089021  0.39814394    -0.05730
C375        C  0.47845632  0.17903872  0.39502938     0.00210
C376        C  0.44591245  0.16489560  0.41089499    -0.08260
C377        C  0.40899367  0.18270840  0.40601161     0.62120
H378        H  0.42338191  0.12309586  0.44416666     0.12810
H379        H  0.03581717  0.17244650  0.38506418     0.12830
C380        C  0.05084541  0.11073398  0.42021003     0.62350
F381        F  0.37997566  0.16221197  0.42083347    -0.22810
F382        F  0.40111948  0.18572644  0.37165903    -0.20140
F383        F  0.41064839  0.21744022  0.42054907    -0.19820
F384        F  0.04608842  0.07498975  0.40818721    -0.19870
F385        F  0.06385433  0.11076210  0.45341207    -0.20190
F386        F  0.07788813  0.12873214  0.40061820    -0.22870
C387        C  0.17362583  0.01506464  0.58000385    -0.05700
C388        C  0.17448941  0.49196800  0.60842244     0.00220
C389        C  0.14224053  0.46877419  0.61561872    -0.08350
C390        C  0.11086720  0.46961574  0.59342481    -0.05730
C391        C  0.11134259  0.49144607  0.56392663     0.00210
C392        C  0.14371753  0.01401939  0.55702621    -0.08260
C393        C  0.14792850  0.03544795  0.52442596     0.62120
H394        H  0.19771159  0.03332335  0.57513416     0.12810
H395        H  0.08591297  0.45272889  0.59862231     0.12830
C396        C  0.14060951  0.44262670  0.64573096     0.62350
F397        F  0.18215212  0.05446294  0.52188956    -0.22810
F398        F  0.12093115  0.06086462  0.52240923    -0.20140
F399        F  0.14470502  0.51070025  0.49781211    -0.19820
F400        F  0.13649839  0.96215125  0.67547311    -0.19870
F401        F  0.17260457  0.42324717  0.64757418    -0.20190
F402        F  0.11063944  0.41731207  0.64311593    -0.22870
C403        C  0.31757221  0.02575122  0.57684002    -0.05700
C404        C  0.31396161  0.49974998  0.60315840     0.00220
C405        C  0.34396059  0.47719050  0.61038275    -0.08350
C406        C  0.37720811  0.48289392  0.59220102    -0.05730
C407        C  0.38106803  0.50855015  0.56539031     0.00210
C408        C  0.35031754  0.03040863  0.55743484    -0.08260
C409        C  0.35138929  0.05856079  0.52878609     0.62120
H410        H  0.29427139  0.04262402  0.57172485     0.12810
H411        H  0.40020972  0.46604390  0.59849603     0.12830
C412        C  0.34186867  0.44662083  0.63681972     0.62350
F413        F  0.31950130  0.07821963  0.52745835    -0.22810
F414        F  0.35435412  0.04083505  0.49785359    -0.20140
F415        F  0.38126327  0.08365699  0.53350471    -0.19820
F416        F  0.30583672  0.43252667  0.64138197    -0.19870
F417        F  0.35597312  0.46016625  0.66744649    -0.20190
F418        F  0.36264759  0.41756550  0.62677515    -0.22870
C419        C  0.14801960  0.49508132  0.38377787    -0.05700
C420        C  0.17867725  0.51783702  0.39438152     0.00220
C421        C  0.17327778  0.04467544  0.41992266    -0.08350
C422        C  0.13816645  0.04536829  0.43574617    -0.05730
C423        C  0.10865424  0.51963480  0.42775178     0.00210
C424        C  0.11296093  0.49591759  0.39920642    -0.08260
C425        C  0.08125495  0.47129510  0.38444208     0.62120
H426        H  0.15212228  0.47551643  0.36353585     0.12810
H427        H  0.13424779  0.06504285  0.45590053     0.12830
C428        C  0.20417545  0.07224049  0.43111409     0.62350
F429        F  0.09052047  0.45591531  0.35362327    -0.22810
F430        F  0.05052913  0.99184583  0.37861668    -0.20140
F431        F  0.07229440  0.44264402  0.40653611    -0.19820
F432        F  0.22348460  0.08601109  0.40325989    -0.19870
F433        F  0.22834723  0.55540911  0.45289692    -0.20190
F434        F  0.19021374  0.10182663  0.44813433    -0.22870
C435        C  0.35122870  0.96544528  0.44314581    -0.05700
C436        C  0.38353884  0.48613697  0.43301773     0.00220
C437        C  0.38203701  0.50592668  0.40176515    -0.08350
C438        C  0.34765430  0.50723297  0.38429988    -0.05730
C439        C  0.31517682  0.48780907  0.39539753     0.00210
C440        C  0.31780759  0.96447904  0.42415482    -0.08260
C441        C  0.28697620  0.93719847  0.43546219     0.62120
H442        H  0.35198471  0.94911890  0.46616924     0.12810
H443        H  0.34565750  0.52450111  0.36199567     0.12830
C444        C  0.41597481  0.52596319  0.38651157     0.62350
F445        F  0.30166903  0.40347191  0.44226649    -0.22810
F446        F  0.25953502  0.43112086  0.41099887    -0.20140
F447        F  0.27126313  0.95002733  0.46483461    -0.19820
F448        F  0.44481780  0.50238488  0.38449917    -0.19870
F449        F  0.42660475  0.05611680  0.40633742    -0.20190
F450        F  0.40898950  0.03860708  0.35397453    -0.22870
O451        O  0.41513289  0.96744046  0.48378328    -0.80060
O452        O  0.07471329  0.53276689  0.47936480    -0.80080
O453        O  0.45245230  0.57848160  0.47854336    -0.80090
O454        O  0.99953200  0.93810748  0.44632142    -0.80030
O455        O  0.00858984  0.56357597  0.46445810    -0.80160
O456        O  0.46213051  0.91150773  0.48339332    -0.80080
O457        O  0.04935106  0.99318631  0.44509856    -0.80060
O458        O  0.44485751  0.50885451  0.45205885    -0.80100
C459        C  0.41681983  0.98686757  0.45670240     1.09630
C460        C  0.07573887  0.51593928  0.45126432     1.09510
C461        C  0.48117471  0.58489587  0.46087925     1.09650
C462        C  0.97750138  0.91197858  0.45454229     1.09530
O463        O  0.49021512  0.93312924  0.54990048    -0.80060
O464        O  0.04459604  0.58174611  0.52327943    -0.80140
O465        O  0.42036021  0.52645142  0.51782822    -0.80070
O466        O  0.07820278  0.97151942  0.51312283    -0.80050
O467        O  0.05189136  0.51147656  0.54641208    -0.80110
O468        O  0.44139224  0.98729905  0.55295596    -0.80070
O469        O  0.02743668  0.91149174  0.51147303    -0.80030
O470        O  0.48767152  0.56103760  0.53632616    -0.80100
Co471      Co  0.45494147  0.95234218  0.51711520     1.51530
Co472      Co  0.02751704  0.53481041  0.50697609     1.51690
Co473      Co  0.46871114  0.53261244  0.49277118     1.51570
Co474      Co  0.03637939  0.95569295  0.47977986     1.51470
O475        O  0.49696103  0.98714542  0.49974240    -1.42000
C476        C  0.01107604  0.90860462  0.54006914     1.09560
C477        C  0.51553819  0.58467532  0.54070227     1.09650
C478        C  0.41629054  0.00865641  0.54513928     1.09580
C479        C  0.07820762  0.49053772  0.54054739     1.09560
C480        C  0.47930507  0.71360394  0.37583183     0.03210
C481        C  0.47959124  0.74711968  0.39321514    -0.12940
C482        C  0.48248801  0.78028244  0.37531257     0.00710
C483        C  0.48596483  0.78004671  0.33991456    -0.11470
C484        C  0.48671484  0.74636698  0.32251891     0.03200
C485        C  0.48235272  0.71318304  0.34048896    -0.10890
H486        H  0.47785440  0.74742575  0.42073325     0.08790
H487        H  0.48865047  0.80585439  0.32609211     0.06320
H488        H  0.48148771  0.68705969  0.32707836     0.06170
C489        C  0.27942781  0.99427417  0.37687086     0.03210
C490        C  0.24729935  0.00400403  0.39440616    -0.12940
C491        C  0.21478776  0.01293286  0.37657239     0.00710
C492        C  0.21515825  0.01270011  0.34075223    -0.11470
C493        C  0.24608887  0.00134178  0.32277067     0.03200
C494        C  0.27814693  0.99255223  0.34110755    -0.10890
H495        H  0.24741994  0.50343890  0.42185304     0.08790
H496        H  0.19074918  0.02049625  0.32682372     0.06320
H497        H  0.30228143  0.98416184  0.32744449     0.06170
C498        C  0.27926931  0.99845680  0.62365058     0.03210
C499        C  0.28121458  0.00568902  0.65857158    -0.12940
C500        C  0.24898950  0.00465499  0.67844632     0.00710
C501        C  0.21399844  0.99851875  0.66247908    -0.11470
C502        C  0.21109049  0.99219190  0.62720694     0.03200
C503        C  0.24427301  0.99129858  0.60827590    -0.10890
H504        H  0.30808073  0.01186852  0.67044757     0.08790
H505        H  0.18940949  0.00021786  0.67747705     0.06320
H506        H  0.24283984  0.48613669  0.58112272     0.06170
C507        C  0.50342375  0.71288896  0.62453195     0.03210
C508        C  0.51023580  0.74629016  0.60758359    -0.12940
C509        C  0.51236002  0.77961817  0.62561305     0.00710
C510        C  0.50910272  0.77918441  0.66117985    -0.11470
C511        C  0.50351866  0.74537292  0.67844672     0.03200
C512        C  0.49923689  0.71252880  0.65974775    -0.10890
H513        H  0.51326688  0.74641807  0.58016631     0.08790
H514        H  0.51049998  0.80489028  0.67526108     0.06320
H515        H  0.49300295  0.68657552  0.67255084     0.06170
C516        C  0.24515085  0.97697203  0.11906637     0.03210
C517        C  0.24528016  0.97543493  0.15492121    -0.12940
C518        C  0.24354516  0.00769946  0.17460492     0.00710
C519        C  0.24029400  0.54168831  0.15799618    -0.11470
C520        C  0.24066220  0.54366784  0.12230019     0.03200
C521        C  0.24345078  0.01136869  0.10305278    -0.10890
H522        H  0.24766838  0.94912762  0.16754943     0.08790
H523        H  0.23776414  0.56661534  0.17275976     0.06320
H524        H  0.24534767  0.01331314  0.07565576     0.06170
O525        O  0.28795044  0.83263182  0.02394418    -0.80060
O526        O  0.21018475  0.67823451  0.01790978    -0.80080
O527        O  0.18756477  0.76256287  0.05362021    -0.80090
O528        O  0.32379328  0.70316082  0.02203554    -0.80030
O529        O  0.15861265  0.72933764  0.01431220    -0.80160
O530        O  0.31832097  0.76115739  0.03632760    -0.80080
O531        O  0.25461978  0.70476076  0.04987339    -0.80060
O532        O  0.24445090  0.81163834  0.05712537    -0.80100
C533        C  0.26795578  0.83715151  0.05003728     1.09630
C534        C  0.22999635  0.67885507  0.04505010     1.09510
C535        C  0.16007352  0.74273792  0.04423721     1.09650
C536        C  0.33559979  0.73049267  0.03922335     1.09450
O537        O  0.33485714  0.79766998  0.97781709    -0.80060
O538        O  0.18936697  0.75488534  0.94894815    -0.80140
O539        O  0.22525318  0.83920574  0.98995123    -0.80070
O540        O  0.27088796  0.67657300  0.98565616    -0.80050
O541        O  0.23503761  0.69900282  0.94797555    -0.80110
O542        O  0.26440048  0.81138233  0.95729978    -0.80070
O543        O  0.30881159  0.74188902  0.96572589    -0.80030
O544        O  0.16486120  0.79065071  0.98667041    -0.80100
Co545      Co  0.28763245  0.78460605  0.99570656     1.51530
Co546      Co  0.20086717  0.71800669  0.98286068     1.51690
Co547      Co  0.20740901  0.79842722  0.02132340     1.51570
Co548      Co  0.28014190  0.72525739  0.00936304     1.51470
O549        O  0.23790456  0.75727961  0.00254962    -1.42000
C550        C  0.33441675  0.76771227  0.96093603     1.09560
C551        C  0.16479582  0.77627150  0.95693048     1.09650
C552        C  0.24450123  0.83862285  0.96316069     1.09580
C553        C  0.25544476  0.67368433  0.95700204     1.09560
C554        C  0.02803696  0.72950151  0.12458100     0.03210
C555        C  0.02620324  0.73961235  0.15889433    -0.12940
C556        C  0.49365612  0.73213108  0.17741082     0.00710
C557        C  0.46217386  0.71596163  0.16083227    -0.11470
C558        C  0.46316417  0.70806648  0.12598511     0.03200
C559        C  0.49683397  0.71200421  0.10885141    -0.10890
H560        H  0.04988920  0.75383933  0.17119463     0.08790
H561        H  0.43615373  0.71218545  0.17423480     0.06320
H562        H  0.49752980  0.70532750  0.08206678     0.06170
C563        C  0.26355885  0.97103180  0.88013495     0.03210
C564        C  0.26009542  0.97064953  0.84457834    -0.12940
C565        C  0.26289593  0.00373628  0.82591050     0.00710
C566        C  0.26670862  0.53755477  0.84350799    -0.11470
C567        C  0.26926223  0.53858449  0.87913912     0.03200
C568        C  0.26821731  0.00499587  0.89719635    -0.10890
H569        H  0.25418420  0.94466394  0.83165864     0.08790
H570        H  0.26638497  0.56309335  0.82942292     0.06320
H571        H  0.26960848  0.00530119  0.92474973     0.06170
C572        C  0.03033457  0.75359968  0.87781445     0.03210
C573        C  0.02863753  0.75048165  0.84236968    -0.12940
C574        C  0.49451634  0.74300660  0.82542727     0.00710
C575        C  0.46225826  0.73642616  0.84480712    -0.11470
C576        C  0.46277229  0.74275222  0.88017691     0.03200
C577        C  0.49705721  0.75238818  0.89613831    -0.10890
H578        H  0.05401271  0.75355337  0.82788569     0.08790
H579        H  0.43668033  0.72700691  0.83235641     0.06320
H580        H  0.49818395  0.75878501  0.92298702     0.06170
C581        C  0.28703532  0.63807416  0.91220674    -0.05700
C582        C  0.25858031  0.63966766  0.93621204     0.00220
C583        C  0.23452323  0.60801873  0.94130349    -0.08350
C584        C  0.23891697  0.57631758  0.92167368    -0.05730
C585        C  0.26746553  0.57424357  0.89797158     0.00210
C586        C  0.29244076  0.60555231  0.89332302    -0.08260
C587        C  0.32487707  0.60532532  0.86900888     0.62120
H588        H  0.30539791  0.66233790  0.90864286     0.12810
H589        H  0.22009868  0.55236877  0.92502618     0.12830
C590        C  0.20522373  0.60700039  0.96848098     0.62350
F591        F  0.35300537  0.63063166  0.87900760    -0.22810
F592        F  0.31300708  0.61467674  0.83677716    -0.20140
F593        F  0.33983018  0.57101932  0.86801112    -0.19820
F594        F  0.18243294  0.63611614  0.96399867    -0.19870
F595        F  0.22280718  0.60934218  0.99979095    -0.20190
F596        F  0.18307948  0.57462168  0.96783663    -0.22870
C597        C  0.28179503  0.88097223  0.92583745    -0.05700
C598        C  0.24711357  0.87199188  0.94068139     0.00220
C599        C  0.21791135  0.89671927  0.93590471    -0.08350
C600        C  0.22419911  0.92774606  0.91469431    -0.05730
C601        C  0.25878196  0.93618586  0.89988441     0.00210
C602        C  0.28833627  0.91290533  0.90598814    -0.08260
C603        C  0.32698210  0.92259500  0.89267839     0.62120
H604        H  0.30458796  0.86381345  0.93160545     0.12810
H605        H  0.20253214  0.94687236  0.91064194     0.12830
C606        C  0.18129057  0.89306537  0.95484992     0.62350
F607        F  0.35227893  0.89721282  0.90269884    -0.22810
F608        F  0.33939660  0.95689354  0.90481228    -0.20140
F609        F  0.32608135  0.92336901  0.85762088    -0.19820
F610        F  0.18763945  0.90209260  0.98849661    -0.19870
F611        F  0.16550933  0.85775638  0.95289638    -0.20190
F612        F  0.15551048  0.91650277  0.94196971    -0.22870
C613        C  0.38141625  0.68922614  0.06555139    -0.05700
C614        C  0.36785534  0.72509470  0.06281358     0.00220
C615        C  0.38623101  0.75398573  0.08159999    -0.08350
C616        C  0.41621361  0.74635790  0.10269362    -0.05730
C617        C  0.42905484  0.71092574  0.10558363     0.00210
C618        C  0.41209626  0.68174979  0.08647692    -0.08260
C619        C  0.42629099  0.64320283  0.08850076     0.62120
H620        H  0.36810522  0.66687903  0.05097985     0.12810
H621        H  0.43080310  0.76844984  0.11666978     0.12830
C622        C  0.37376347  0.79254380  0.08032738     0.62350
F623        F  0.40538897  0.61836874  0.06846908    -0.22810
F624        F  0.42485960  0.63103736  0.12180081    -0.20140
F625        F  0.46260189  0.64345968  0.07749360    -0.19820
F626        F  0.33750490  0.79119983  0.09101068    -0.19870
F627        F  0.37648052  0.80583622  0.04741935    -0.20190
F628        F  0.39452375  0.81641527  0.10150572    -0.22870
C629        C  0.09339710  0.74831560  0.05136747    -0.05700
C630        C  0.12747455  0.74049349  0.06631048     0.00220
C631        C  0.12988102  0.73518625  0.10202571    -0.08350
C632        C  0.09661247  0.73078914  0.12012495    -0.05730
C633        C  0.06224942  0.73774443  0.10488748     0.00210
C634        C  0.06142550  0.75060261  0.07083923    -0.08260
C635        C  0.02888344  0.76924074  0.05458890     0.62120
H636        H  0.09242084  0.75606001  0.02480137     0.12810
H637        H  0.09735601  0.72243601  0.14651904     0.12830
C638        C  0.16676713  0.73571315  0.12137276     0.62350
F639        F  0.04177957  0.80071564  0.03762104    -0.22810
F640        F  0.00346441  0.78013179  0.07819533    -0.20140
F641        F  0.01127306  0.74553695  0.03135193    -0.19820
F642        F  0.18350695  0.77086469  0.12018527    -0.19870
F643        F  0.19038801  0.71119806  0.10746905    -0.20190
F644        F  0.16197421  0.72650538  0.15526382    -0.22870
C645        C  0.39646680  0.75927468  0.88443935    -0.05700
C646        C  0.42732154  0.74323478  0.89974019     0.00220
C647        C  0.42436352  0.73186430  0.93428866    -0.08350
C648        C  0.39481607  0.74336791  0.95355540    -0.05730
C649        C  0.36509696  0.76027413  0.93845811     0.00210
C650        C  0.36427831  0.76581584  0.90299985    -0.08260
C651        C  0.32967329  0.77809297  0.88509607     0.62120
H652        H  0.39777846  0.76742705  0.85804898     0.12810
H653        H  0.39380780  0.73701244  0.98052763     0.12830
C654        C  0.44986409  0.70601636  0.95170739     0.62350
F655        F  0.33424801  0.78029624  0.85023021    -0.22810
F656        F  0.32117682  0.81235447  0.89688525    -0.20140
F657        F  0.30025029  0.75308147  0.89148298    -0.19820
F658        F  0.47354917  0.72609664  0.97339595    -0.19870
F659        F  0.46961473  0.68665425  0.92853707    -0.20190
F660        F  0.42932867  0.68028642  0.97073704    -0.22870
C661        C  0.10285911  0.74974762  0.94722970    -0.05700
C662        C  0.13100978  0.77447238  0.93567168     0.00220
C663        C  0.12945203  0.78679355  0.90143274    -0.08350
C664        C  0.09517746  0.78222874  0.88383079    -0.05730
C665        C  0.06664295  0.75791723  0.89611475     0.00210
C666        C  0.07386783  0.73734268  0.92574960    -0.08260
C667        C  0.05695616  0.69900120  0.93261766     0.62120
H668        H  0.10670913  0.73531967  0.97095772     0.12810
H669        H  0.09148156  0.79562627  0.85955487     0.12830
C670        C  0.16406137  0.79979051  0.88216549     0.62350
F671        F  0.08520543  0.67495201  0.93689363    -0.22810
F672        F  0.03495943  0.68551101  0.90596752    -0.20140
F673        F  0.03672007  0.69912500  0.96218871    -0.19820
F674        F  0.18805354  0.77134232  0.88058138    -0.19870
F675        F  0.18206664  0.82955609  0.89793692    -0.20190
F676        F  0.15566788  0.80994607  0.84915768    -0.22870
C677        C  0.26495399  0.63555417  0.07950113    -0.05700
C678        C  0.22988525  0.64584877  0.06781602     0.00220
C679        C  0.19798392  0.62223059  0.07501138    -0.08350
C680        C  0.20272108  0.58992252  0.09420192    -0.05730
C681        C  0.23789929  0.57955257  0.10474728     0.00210
C682        C  0.26964908  0.60220930  0.09676900    -0.08260
C683        C  0.30845177  0.59029343  0.10498048     0.62120
H684        H  0.28927870  0.65286046  0.07314430     0.12810
H685        H  0.17904073  0.57152794  0.10012649     0.12830
C686        C  0.15909883  0.63007972  0.06262584     0.62350
F687        F  0.33553074  0.61638598  0.09509679    -0.22810
F688        F  0.31452200  0.55764720  0.08827495    -0.20140
F689        F  0.31232804  0.58504442  0.13949144    -0.19820
F690        F  0.15658425  0.62671656  0.02778068    -0.19870
F691        F  0.15060444  0.66512374  0.07171837    -0.20190
F692        F  0.13232692  0.60592623  0.07648482    -0.22870
C693        C  0.28347980  0.92483525  0.10547774    -0.05700
C694        C  0.25092398  0.94290850  0.09892498     0.00220
C695        C  0.22425082  0.92670815  0.07587268    -0.08350
C696        C  0.23146095  0.89257422  0.06039996    -0.05730
C697        C  0.26440917  0.87432784  0.06674736     0.00210
C698        C  0.29023880  0.89066592  0.09055148    -0.08260
C699        C  0.32298677  0.87074672  0.10285138     0.62120
H700        H  0.30310983  0.93727259  0.12368861     0.12810
H701        H  0.21093122  0.87942677  0.04358874     0.12830
C702        C  0.18807338  0.94483700  0.06814325     0.62350
F703        F  0.34582891  0.89171233  0.12478290    -0.22810
F704        F  0.34365612  0.86170193  0.07510189    -0.20140
F705        F  0.30972791  0.83994480  0.12040479    -0.19820
F706        F  0.19510635  0.97590103  0.04845670    -0.19870
F707        F  0.17129054  0.95479902  0.09800826    -0.20190
F708        F  0.16316033  0.92139553  0.05054476    -0.22870
C709        C  0.47364287  0.76339522  0.73185214    -0.05700
C710        C  0.50135309  0.74410986  0.71598909     0.00220
C711        C  0.02647514  0.72439679  0.73601270    -0.08350
C712        C  0.02113839  0.72257896  0.77127469    -0.05730
C713        C  0.49366168  0.74213925  0.78750366     0.00210
C714        C  0.46986340  0.76374505  0.76743875    -0.08260
C715        C  0.44121886  0.78806062  0.78276322     0.62120
H716        H  0.45496056  0.77845255  0.71597235     0.12810
H717        H  0.03930254  0.70647190  0.78671069     0.12830
C718        C  0.06023943  0.70730005  0.72077579     0.62350
F719        F  0.42939171  0.81368108  0.75951752    -0.22810
F720        F  0.45610787  0.80744437  0.81043093    -0.20140
F721        F  0.41038920  0.76660967  0.79260184    -0.19820
F722        F  0.07836409  0.73221497  0.69918319    -0.19870
F723        F  0.04961487  0.67564071  0.70292165    -0.20190
F724        F  0.08545966  0.69787259  0.74567464    -0.22870
C725        C  0.27854710  0.98463104  0.73176144    -0.05700
C726        C  0.25280568  0.00719640  0.71618775     0.00220
C727        C  0.23148512  0.52988668  0.73699548    -0.08350
C728        C  0.23407563  0.52610325  0.77254903    -0.05730
C729        C  0.25995297  0.00358302  0.78805750     0.00210
C730        C  0.28381328  0.98370403  0.76715462    -0.08260
C731        C  0.31531407  0.96194283  0.78136099     0.62120
H732        H  0.29469906  0.96725310  0.71585769     0.12810
H733        H  0.21650917  0.54204299  0.78851315     0.12830
C734        C  0.20702372  0.55946284  0.72339095     0.62350
F735        F  0.34157571  0.95586537  0.75678003    -0.22810
F736        F  0.30141617  0.92801151  0.79269712    -0.20140
F737        F  0.33335820  0.98101093  0.80772942    -0.19820
F738        F  0.17013408  0.54715281  0.72543893    -0.19870
F739        F  0.21505316  0.56909961  0.69017491    -0.20190
F740        F  0.21236364  0.59117752  0.74281283    -0.22870
C741        C  0.27515018  0.51832651  0.26749503    -0.05700
C742        C  0.24559849  0.99998259  0.28469714     0.00220
C743        C  0.21646413  0.98196227  0.26520783    -0.08350
C744        C  0.21626548  0.98623014  0.22954005    -0.05730
C745        C  0.24527894  0.00558781  0.21252573     0.00210
C746        C  0.27601098  0.52063043  0.23175699    -0.08260
C747        C  0.30960701  0.53943583  0.21494221     0.62120
H748        H  0.29741077  0.53172851  0.28239636     0.12810
H749        H  0.19343468  0.97382448  0.21462069     0.12830
C750        C  0.18568752  0.95739036  0.28076428     0.62350
F751        F  0.33935182  0.54416606  0.23738531    -0.22810
F752        F  0.30054111  0.57379134  0.20357381    -0.20140
F753        F  0.32098594  0.01850705  0.18791801    -0.19820
F754        F  0.15465376  0.47754345  0.28550331    -0.19870
F755        F  0.19643669  0.94256231  0.31147854    -0.20190
F756        F  0.17613931  0.92808559  0.25927777    -0.22870
C757        C  0.02204971  0.72766878  0.23433187    -0.05700
C758        C  0.49318720  0.74079134  0.21416743     0.00220
C759        C  0.46447548  0.75986773  0.22980743    -0.08350
C760        C  0.46292810  0.76033414  0.26538656    -0.05730
C761        C  0.49090340  0.74567285  0.28539905     0.00210
C762        C  0.02212334  0.73101177  0.26981199    -0.08260
C763        C  0.05576180  0.71987541  0.29027243     0.62120
H764        H  0.04430210  0.71392192  0.22210052     0.12810
H765        H  0.43993882  0.77282846  0.27776523     0.12830
C766        C  0.43579618  0.78098893  0.21044471     0.62350
F767        F  0.08537397  0.71291930  0.26945816    -0.22810
F768        F  0.04713394  0.68828681  0.30873666    -0.20140
F769        F  0.06720366  0.74808797  0.31228517    -0.19820
F770        F  0.40225393  0.76062739  0.20975493    -0.19870
F771        F  0.44663747  0.78909538  0.17758610    -0.20190
F772        F  0.43075379  0.81426367  0.22655636    -0.22870
C773        C  0.48114485  0.82132339  0.58755453    -0.05700
C774        C  0.51329058  0.81436093  0.60602005     0.00220
C775        C  0.04591027  0.83724857  0.60162833    -0.08350
C776        C  0.04475904  0.86763580  0.57924001    -0.05730
C777        C  0.51231610  0.87459436  0.56072157     0.00210
C778        C  0.48018723  0.85041690  0.56428299    -0.08260
C779        C  0.44588895  0.85298192  0.54177693     0.62120
H780        H  0.45708658  0.80245888  0.59055501     0.12810
H781        H  0.06897652  0.88624473  0.57622534     0.12830
C782        C  0.08158435  0.82908034  0.62020333     0.62350
F783        F  0.41798908  0.82699347  0.55025648    -0.22810
F784        F  0.45554461  0.84638041  0.50851619    -0.20140
F785        F  0.43137159  0.88730752  0.54457167    -0.19820
F786        F  0.09075363  0.79328624  0.61350152    -0.19870
F787        F  0.07684655  0.83321689  0.65481872    -0.20190
F788        F  0.11099863  0.85248203  0.61017821    -0.22870
C789        C  0.47803899  0.63107420  0.56769433    -0.05700
C790        C  0.51270940  0.61521999  0.56522431     0.00220
C791        C  0.04339176  0.63000092  0.58471617    -0.08350
C792        C  0.03853335  0.66126820  0.60483034    -0.05730
C793        C  0.50453234  0.67807373  0.60565906     0.00210
C794        C  0.47349861  0.66270164  0.58748451    -0.08260
C795        C  0.43610209  0.67999883  0.58879369     0.62120
H796        H  0.45482406  0.61940844  0.55283728     0.12810
H797        H  0.06170321  0.67379763  0.61920740     0.12830
C798        C  0.08124142  0.61357662  0.58421966     0.62350
F799        F  0.40915673  0.65992862  0.57019692    -0.22810
F800        F  0.43914305  0.71533403  0.57563398    -0.20140
F801        F  0.42445381  0.68159438  0.62213829    -0.19820
F802        F  0.09814735  0.62148463  0.55351242    -0.19870
F803        F  0.07747844  0.57578864  0.58877827    -0.20190
F804        F  0.10436479  0.62793009  0.60985546    -0.22870
C805        C  0.01096408  0.86186004  0.43059313    -0.05700
C806        C  0.47702448  0.87874764  0.43350873     0.00220
C807        C  0.44519440  0.86447142  0.41583724    -0.08350
C808        C  0.44811418  0.83229419  0.39638430    -0.05730
C809        C  0.48195486  0.81506786  0.39410810     0.00210
C810        C  0.01406523  0.83003494  0.41100858    -0.08260
C811        C  0.05131679  0.81253123  0.40821970     0.62120
H812        H  0.03505425  0.87374638  0.44414051     0.12810
H813        H  0.42409707  0.82024126  0.38289024     0.12830
C814        C  0.40918949  0.88410395  0.41644494     0.62350
F815        F  0.07938632  0.83303912  0.42499918    -0.22810
F816        F  0.06098369  0.80993850  0.37439134    -0.20140
F817        F  0.04911786  0.77763227  0.42233908    -0.19820
F818        F  0.41533319  0.91924763  0.40347567    -0.19870
F819        F  0.39665328  0.88633477  0.44945265    -0.20190
F820        F  0.38166333  0.86597459  0.39699247    -0.22870
C821        C  0.44815777  0.63356189  0.43131000    -0.05700
C822        C  0.48171800  0.61576222  0.43600262     0.00220
C823        C  0.01399548  0.62913936  0.41826218    -0.08350
C824        C  0.01158693  0.66089029  0.39814269    -0.05730
C825        C  0.47846019  0.67903864  0.39502896     0.00210
C826        C  0.44591684  0.66489516  0.41089523    -0.08260
C827        C  0.40899762  0.68270736  0.40601253     0.62120
H828        H  0.42338763  0.62309539  0.44416747     0.12810
H829        H  0.03582086  0.67244672  0.38506236     0.12830
C830        C  0.05085045  0.61073413  0.42020773     0.62350
F831        F  0.37998018  0.66221022  0.42083452    -0.22810
F832        F  0.40112285  0.68572569  0.37166008    -0.20140
F833        F  0.41065187  0.71743897  0.42055039    -0.19820
F834        F  0.04609306  0.57498969  0.40818547    -0.19870
F835        F  0.06386066  0.61076272  0.45340937    -0.20190
F836        F  0.07789235  0.62873204  0.40061481    -0.22870
C837        C  0.17363450  0.51506370  0.58000109    -0.05700
C838        C  0.17448093  0.99196829  0.60842468     0.00220
C839        C  0.14223229  0.96877408  0.61562063    -0.08350
C840        C  0.11085907  0.96961552  0.59342652    -0.05730
C841        C  0.11133457  0.99144606  0.56392844     0.00210
C842        C  0.14372580  0.51401884  0.55702381    -0.08260
C843        C  0.14793628  0.53544783  0.52442366     0.62120
H844        H  0.19772037  0.53332213  0.57513107     0.12810
H845        H  0.08590498  0.95272832  0.59862367     0.12830
C846        C  0.14060161  0.94262631  0.64573264     0.62350
F847        F  0.18216012  0.55446230  0.52188678    -0.22810
F848        F  0.12093932  0.56086503  0.52240790    -0.20140
F849        F  0.14469832  0.01069980  0.49781481    -0.19820
F850        F  0.13650391  0.46215174  0.67547101    -0.19870
F851        F  0.17259594  0.92324550  0.64757426    -0.20190
F852        F  0.11063042  0.91731289  0.64311866    -0.22870
C853        C  0.31758154  0.52575527  0.57684244    -0.05700
C854        C  0.31395254  0.99974621  0.60315630     0.00220
C855        C  0.34395310  0.97718936  0.61038264    -0.08350
C856        C  0.37720164  0.98289546  0.59220299    -0.05730
C857        C  0.38106064  0.00854994  0.56539078     0.00210
C858        C  0.35032615  0.53041111  0.55743611    -0.08260
C859        C  0.35139825  0.55856369  0.52878771     0.62120
H860        H  0.29428139  0.54262924  0.57172823     0.12810
H861        H  0.40020393  0.96604688  0.59849966     0.12830
C862        C  0.34186356  0.94661829  0.63681829     0.62350
F863        F  0.31951107  0.57822382  0.52746095    -0.22810
F864        F  0.35436153  0.54083819  0.49785491    -0.20140
F865        F  0.38127329  0.58365869  0.53350594    -0.19820
F866        F  0.30583039  0.93253638  0.64139853    -0.19870
F867        F  0.35599147  0.96015672  0.66743916    -0.20190
F868        F  0.36262468  0.91755551  0.62675970    -0.22870
C869        C  0.14801051  0.99508201  0.38377585    -0.05700
C870        C  0.17867027  0.01783380  0.39438152     0.00220
C871        C  0.17328255  0.54468049  0.41992040    -0.08350
C872        C  0.13817114  0.54537166  0.43574396    -0.05730
C873        C  0.10864749  0.01963452  0.42775215     0.00210
C874        C  0.11295198  0.99592002  0.39920450    -0.08260
C875        C  0.08124363  0.97130255  0.38443759     0.62120
H876        H  0.15211127  0.97551851  0.36353224     0.12810
H877        H  0.13425078  0.56504748  0.45589692     0.12830
C878        C  0.20417783  0.57225003  0.43110806     0.62350
F879        F  0.09050696  0.95592736  0.35361617    -0.22810
F880        F  0.05053880  0.49183483  0.37861708    -0.20140
F881        F  0.07228139  0.94264827  0.40652765    -0.19820
F882        F  0.22347982  0.58602375  0.40325103    -0.19870
F883        F  0.22833796  0.05539575  0.45290692    -0.20190
F884        F  0.19021442  0.60183348  0.44813107    -0.22870
C885        C  0.35123470  0.46544952  0.44314678    -0.05700
C886        C  0.38353203  0.98613468  0.43301767     0.00220
C887        C  0.38202952  0.00592533  0.40176562    -0.08350
C888        C  0.34764680  0.00723062  0.38430018    -0.05730
C889        C  0.31517004  0.98780492  0.39539710     0.00210
C890        C  0.31781349  0.46448411  0.42415601    -0.08260
C891        C  0.28698094  0.43720544  0.43546453     0.62120
H892        H  0.35199012  0.44912403  0.46617078     0.12810
H893        H  0.34564934  0.02449938  0.36199645     0.12830
C894        C  0.41596652  0.02596408  0.38651286     0.62350
F895        F  0.30166578  0.90346509  0.44226174    -0.22810
F896        F  0.25952994  0.93111467  0.41099673    -0.20140
F897        F  0.27126782  0.45003706  0.46483584    -0.19820
F898        F  0.44481069  0.00238726  0.38449960    -0.19870
F899        F  0.42661456  0.55611640  0.40633495    -0.20190
F900        F  0.40899824  0.53860505  0.35397277    -0.22870
O901        O  0.91513985  0.46744149  0.48378278    -0.80060
O902        O  0.57470653  0.03276634  0.47936551    -0.80080
O903        O  0.95244528  0.07848110  0.47854289    -0.80090
O904        O  0.49953867  0.43810790  0.44632038    -0.80030
O905        O  0.50858307  0.06357532  0.46445847    -0.80160
O906        O  0.96213694  0.41150862  0.48339232    -0.80080
O907        O  0.54935758  0.49318692  0.44509787    -0.80060
O908        O  0.94485028  0.00885352  0.45205913    -0.80100
C909        C  0.91682685  0.48686888  0.45670208     1.09630
C910        C  0.57573219  0.01593886  0.45126493     1.09510
C911        C  0.98116812  0.08489540  0.46087930     1.09650
C912        C  0.47750747  0.41197946  0.45454119     1.09530
O913        O  0.99022204  0.43312942  0.54989952    -0.80060
O914        O  0.54458891  0.08174571  0.52327988    -0.80140
O915        O  0.92035288  0.02645093  0.51782846    -0.80070
O916        O  0.57820978  0.47151940  0.51312161    -0.80050
O917        O  0.55188365  0.01147629  0.54641300    -0.80110
O918        O  0.94139964  0.48729944  0.55295544    -0.80070
O919        O  0.52744321  0.41149164  0.51147191    -0.80030
O920        O  0.98766406  0.06103768  0.53632620    -0.80100
Co921      Co  0.95494842  0.45234276  0.51711449     1.51530
Co922      Co  0.52750993  0.03481000  0.50697664     1.51690
Co923      Co  0.96870386  0.03261196  0.49277133     1.51570
Co924      Co  0.53638612  0.45569316  0.47977889     1.51470
O925        O  0.99696812  0.48714577  0.49974181    -1.42000
C926        C  0.51108242  0.40860444  0.54006798     1.09560
C927        C  0.01553095  0.08467510  0.54070260     1.09650
C928        C  0.91629785  0.50865670  0.54513884     1.09580
C929        C  0.57820004  0.99053752  0.54054871     1.09560
C930        C  0.97930204  0.21360386  0.37583190     0.03210
C931        C  0.97958940  0.24711982  0.39321496    -0.12940
C932        C  0.98248772  0.28028236  0.37531211     0.00710
C933        C  0.98596467  0.28004615  0.33991414    -0.11470
C934        C  0.98671337  0.24636617  0.32251877     0.03200
C935        C  0.98234992  0.21318250  0.34048905    -0.10890
H936        H  0.97785248  0.24742623  0.42073306     0.08790
H937        H  0.98865149  0.30585365  0.32609150     0.06320
H938        H  0.98148419  0.18705901  0.32707866     0.06170
C939        C  0.77943486  0.49427910  0.37687119     0.03210
C940        C  0.74730659  0.50400964  0.39440637    -0.12940
C941        C  0.71479498  0.51293799  0.37657251     0.00710
C942        C  0.71516522  0.51270454  0.34075241    -0.11470
C943        C  0.74609572  0.50134578  0.32277097     0.03200
C944        C  0.77815384  0.49255650  0.34110789    -0.10890
H945        H  0.74741283  0.00343302  0.42185280     0.08790
H946        H  0.69075580  0.52049982  0.32682391     0.06320
H947        H  0.80228813  0.48416549  0.32744488     0.06170
C948        C  0.77927762  0.49845912  0.62365170     0.03210
C949        C  0.78122118  0.50569086  0.65857272    -0.12940
C950        C  0.74899532  0.50465556  0.67844631     0.00710
C951        C  0.71400500  0.49851884  0.66247791    -0.11470
C952        C  0.71109855  0.49219251  0.62720562     0.03200
C953        C  0.74428199  0.49130024  0.60827572    -0.10890
H954        H  0.80808636  0.51187252  0.67044962     0.08790
H955        H  0.68941548  0.50021727  0.67747515     0.06320
H956        H  0.74282968  0.98613473  0.58112303     0.06170
C957        C  0.00341979  0.21288914  0.62453236     0.03210
C958        C  0.01023362  0.24628987  0.60758366    -0.12940
C959        C  0.01236000  0.27961811  0.62561278     0.00710
C960        C  0.00910296  0.27918494  0.66117963    -0.11470
C961        C  0.00351722  0.24537385  0.67844682     0.03200
C962        C  0.99923339  0.21252964  0.65974821    -0.10890
H963        H  0.01326456  0.24641724  0.58016636     0.08790
H964        H  0.01050173  0.30489094  0.67526064     0.06320
H965        H  0.99299850  0.18657674  0.67255166     0.06170
C966        C  0.74515278  0.47697250  0.11906695     0.03210
C967        C  0.74528301  0.47543582  0.15492182    -0.12940
C968        C  0.74354879  0.50770059  0.17460530     0.00710
C969        C  0.74029049  0.04168740  0.15799599    -0.11470
C970        C  0.74065982  0.04366736  0.12230003     0.03200
C971        C  0.74345240  0.51136901  0.10305313    -0.10890
H972        H  0.74767139  0.44912864  0.16755023     0.08790
H973        H  0.73776000  0.06661424  0.17275969     0.06320
H974        H  0.74534870  0.51331322  0.07565607     0.06170
O975        O  0.78795054  0.33263171  0.02394481    -0.80060
O976        O  0.71018416  0.17823478  0.01790994    -0.80080
O977        O  0.68756449  0.26256326  0.05362049    -0.80090
O978        O  0.82379282  0.20316051  0.02203588    -0.80030
O979        O  0.65861237  0.22933818  0.01431237    -0.80160
O980        O  0.81832083  0.26115709  0.03632807    -0.80080
O981        O  0.75461932  0.20476062  0.04987368    -0.80060
O982        O  0.74445077  0.31163849  0.05712588    -0.80100
C983        C  0.76795585  0.33715149  0.05003787     1.09630
C984        C  0.72999568  0.17885512  0.04505031     1.09510
C985        C  0.66007324  0.24273837  0.04423742     1.09650
C986        C  0.83559953  0.23049228  0.03922369     1.09450
O987        O  0.83485713  0.29766986  0.97781770    -0.80060
O988        O  0.68936695  0.25488593  0.94894841    -0.80140
O989        O  0.72525340  0.33920608  0.98995174    -0.80070
O990        O  0.77088741  0.17657301  0.98565636    -0.80050
O991        O  0.73503729  0.19900312  0.94797572    -0.80110
O992        O  0.76440059  0.31138249  0.95730033    -0.80070
O993        O  0.80881145  0.24188900  0.96572632    -0.80030
O994        O  0.66486122  0.29065129  0.98667069    -0.80100
Co995      Co  0.78763240  0.28460601  0.99570709     1.51530
Co996      Co  0.70086689  0.21800710  0.98286088     1.51690
Co997      Co  0.70740898  0.29842755  0.02132378     1.51570
Co998      Co  0.78014157  0.22525732  0.00936340     1.51470
O999        O  0.73790440  0.25727978  0.00255003    -1.42000
C1000       C  0.83441666  0.26771222  0.96093654     1.09560
C1001       C  0.66479584  0.27627215  0.95693073     1.09650
C1002       C  0.74450149  0.33862311  0.96316123     1.09580
C1003       C  0.75544429  0.17368449  0.95700219     1.09560
C1004       C  0.52803680  0.22950038  0.12458118     0.03210
C1005       C  0.52620295  0.23961101  0.15889455    -0.12940
C1006       C  0.99365577  0.23212967  0.17741085     0.00710
C1007       C  0.96217359  0.21596029  0.16083215    -0.11470
C1008       C  0.96316409  0.20806520  0.12598498     0.03200
C1009       C  0.99683397  0.21200297  0.10885143    -0.10890
H1010       H  0.54988881  0.25383802  0.17119500     0.08790
H1011       H  0.93615337  0.21218417  0.17423455     0.06320
H1012       H  0.99752993  0.20532628  0.08206680     0.06170
C1013       C  0.76355982  0.47103178  0.88013521     0.03210
C1014       C  0.76009697  0.47064929  0.84457856    -0.12940
C1015       C  0.76289756  0.50373597  0.82591061     0.00710
C1016       C  0.76670746  0.03755505  0.84350806    -0.11470
C1017       C  0.76926152  0.03858451  0.87913921     0.03200
C1018       C  0.76821788  0.50499596  0.89719649    -0.10890
H1019       H  0.75418611  0.44466362  0.83165890     0.08790
H1020       H  0.76638411  0.06309378  0.82942315     0.06320
H1021       H  0.76960864  0.50530144  0.92474988     0.06170
C1022       C  0.53033461  0.25360035  0.87781462     0.03210
C1023       C  0.52863753  0.25048255  0.84236983    -0.12940
C1024       C  0.99451631  0.24300782  0.82542747     0.00710
C1025       C  0.96225825  0.23642732  0.84480733    -0.11470
C1026       C  0.96277234  0.24275311  0.88017717     0.03200
C1027       C  0.99705730  0.25238896  0.89613855    -0.10890
H1028       H  0.55401268  0.25355430  0.82788581     0.08790
H1029       H  0.93668029  0.22700821  0.83235658     0.06320
H1030       H  0.99818411  0.25878569  0.92298728     0.06170
C1031       C  0.78703407  0.13807459  0.91220611    -0.05700
C1032       C  0.75857974  0.13966780  0.93621213     0.00220
C1033       C  0.73452329  0.10801854  0.94130424    -0.08350
C1034       C  0.73891717  0.07631727  0.92167461    -0.05730
C1035       C  0.76746522  0.07424348  0.89797197     0.00210
C1036       C  0.79243976  0.10555261  0.89332266    -0.08260
C1037       C  0.82487558  0.10532623  0.86900794     0.62120
H1038       H  0.80539617  0.16233858  0.90864158     0.12810
H1039       H  0.72009923  0.05236828  0.92502756     0.12830
C1040       C  0.70522405  0.10700014  0.96848193     0.62350
F1041       F  0.85300503  0.13063051  0.87900829    -0.22810
F1042       F  0.81300542  0.11468110  0.83677719    -0.20140
F1043       F  0.83982728  0.07101969  0.86800714    -0.19820
F1044       F  0.68243286  0.13611555  0.96399944    -0.19870
F1045       F  0.72280772  0.10934251  0.99979177    -0.20190
F1046       F  0.68308017  0.07462119  0.96783805    -0.22870
C1047       C  0.78179556  0.38097232  0.92583808    -0.05700
C1048       C  0.74711403  0.37199214  0.94068194     0.00220
C1049       C  0.71791194  0.39671965  0.93590516    -0.08350
C1050       C  0.72419986  0.42774634  0.91469467    -0.05730
C1051       C  0.75878277  0.43618593  0.89988478     0.00210
C1052       C  0.78833698  0.41290532  0.90598868    -0.08260
C1053       C  0.82698288  0.42259479  0.89267902     0.62120
H1054       H  0.80458840  0.36381347  0.93160620     0.12810
H1055       H  0.70253299  0.44687273  0.91064222     0.12830
C1056       C  0.68129119  0.39306612  0.95485045     0.62350
F1057       F  0.85227963  0.39721271  0.90269986    -0.22810
F1058       F  0.83939736  0.45689346  0.90481259    -0.20140
F1059       F  0.82608230  0.42336836  0.85762151    -0.19820
F1060       F  0.68764018  0.40209387  0.98849701    -0.19870
F1061       F  0.66550985  0.35775713  0.95289742    -0.20190
F1062       F  0.65551113  0.41650337  0.94196996    -0.22870
C1063       C  0.88141562  0.18922537  0.06555177    -0.05700
C1064       C  0.86785520  0.22509412  0.06281373     0.00220
C1065       C  0.88623153  0.25398514  0.08159966    -0.08350
C1066       C  0.91621424  0.24635715  0.10269306    -0.05730
C1067       C  0.92905489  0.21092479  0.10558340     0.00210
C1068       C  0.91209572  0.18174885  0.08647711    -0.08260
C1069       C  0.92629001  0.14320174  0.08850117     0.62120
H1070       H  0.86810409  0.16687824  0.05098060     0.12810
H1071       H  0.93080417  0.26844904  0.11666894     0.12830
C1072       C  0.87376432  0.29254332  0.08032708     0.62350
F1073       F  0.90538753  0.11836767  0.06846984    -0.22810
F1074       F  0.92485880  0.13103661  0.12180133    -0.20140
F1075       F  0.96260080  0.14345813  0.07749375    -0.19820
F1076       F  0.83750599  0.29119958  0.09101095    -0.19870
F1077       F  0.87648082  0.30583564  0.04741898    -0.20190
F1078       F  0.89452515  0.31641473  0.10150506    -0.22870
C1079       C  0.59339678  0.24831573  0.05136778    -0.05700
C1080       C  0.62747430  0.24049377  0.06631072     0.00220
C1081       C  0.62988084  0.23518631  0.10202591    -0.08350
C1082       C  0.59661233  0.23078876  0.12012515    -0.05730
C1083       C  0.56224920  0.23774381  0.10488773     0.00210
C1084       C  0.56142515  0.25060230  0.07083958    -0.08260
C1085       C  0.52888291  0.26924031  0.05458945     0.62120
H1086       H  0.59242044  0.25606031  0.02480173     0.12810
H1087       H  0.59735595  0.22243540  0.14651917     0.12830
C1088       C  0.66676698  0.23571324  0.12137292     0.62350
F1089       F  0.54177876  0.30071540  0.03762173    -0.22810
F1090       F  0.50346387  0.28013101  0.07819602    -0.20140
F1091       F  0.51127262  0.24553656  0.03135240    -0.19820
F1092       F  0.68350672  0.27086481  0.12018552    -0.19870
F1093       F  0.69038788  0.21119824  0.10746909    -0.20190
F1094       F  0.66197414  0.22650534  0.15526395    -0.22870
C1095       C  0.89646671  0.25927519  0.88443978    -0.05700
C1096       C  0.92732160  0.24323546  0.89974054     0.00220
C1097       C  0.92436367  0.23186484  0.93428898    -0.08350
C1098       C  0.89481613  0.24336815  0.95355577    -0.05730
C1099       C  0.86509686  0.26027417  0.93845855     0.00210
C1100       C  0.86427816  0.26581602  0.90300031    -0.08260
C1101       C  0.82967303  0.27809294  0.88509657     0.62120
H1102       H  0.89777829  0.26742768  0.85804944     0.12810
H1103       H  0.89380792  0.23701264  0.98052800     0.12830
C1104       C  0.94986445  0.20601705  0.95170765     0.62350
F1105       F  0.83424772  0.28029635  0.85023072    -0.22810
F1106       F  0.82117630  0.31235432  0.89688585    -0.20140
F1107       F  0.80025021  0.25308121  0.89148344    -0.19820
F1108       F  0.97354961  0.22609748  0.97339602    -0.19870
F1109       F  0.96961498  0.18665495  0.92853724    -0.20190
F1110       F  0.92932928  0.18028709  0.97073748    -0.22870
C1111       C  0.60285916  0.24974824  0.94722987    -0.05700
C1112       C  0.63100979  0.27447310  0.93567191     0.00220
C1113       C  0.62945200  0.28679441  0.90143302    -0.08350
C1114       C  0.59517745  0.28222951  0.88383104    -0.05730
C1115       C  0.56664301  0.25791788  0.89611491     0.00210
C1116       C  0.57386792  0.23734328  0.92574973    -0.08260
C1117       C  0.55695634  0.19900176  0.93261771     0.62120
H1118       H  0.60670917  0.23532026  0.97095786     0.12810
H1119       H  0.59148149  0.29562714  0.85955518     0.12830
C1120       C  0.66406125  0.29979182  0.88216587     0.62350
F1121       F  0.58520567  0.17495263  0.93689362    -0.22810
F1122       F  0.53495963  0.18551159  0.90596755    -0.20140
F1123       F  0.53672026  0.19912543  0.96218876    -0.19820
F1124       F  0.68805396  0.27134408  0.88058199    -0.19870
F1125       F  0.68206591  0.32955778  0.89793723    -0.20190
F1126       F  0.65566776  0.30994707  0.84915797    -0.22870
C1127       C  0.76495267  0.13555397  0.07950176    -0.05700
C1128       C  0.72988414  0.14584880  0.06781628     0.00220
C1129       C  0.69798259  0.12223076  0.07501132    -0.08350
C1130       C  0.70271935  0.08992252  0.09420172    -0.05730
C1131       C  0.73789736  0.07955229  0.10474734     0.00210
C1132       C  0.76964736  0.10220897  0.09676958    -0.08260
C1133       C  0.80844986  0.09029295  0.10498160     0.62120
H1134       H  0.78927755  0.15286015  0.07314524     0.12810
H1135       H  0.67903883  0.07152803  0.10012596     0.12830
C1136       C  0.65909767  0.13008025  0.06262561     0.62350
F1137       F  0.83552910  0.11638558  0.09509860    -0.22810
F1138       F  0.81452037  0.05764690  0.08827588    -0.20140
F1139       F  0.81232542  0.08504352  0.13949259    -0.19820
F1140       F  0.65658330  0.12671733  0.02778043    -0.19870
F1141       F  0.65060351  0.16512428  0.07171829    -0.20190
F1142       F  0.63232547  0.10592687  0.07648432    -0.22870
C1143       C  0.78348049  0.42483458  0.10547903    -0.05700
C1144       C  0.75092530  0.44290870  0.09892572     0.00220
C1145       C  0.72425220  0.42670894  0.07587300    -0.08350
C1146       C  0.73146193  0.39257493  0.06040022    -0.05730
C1147       C  0.76440959  0.37432781  0.06674808     0.00210
C1148       C  0.79023891  0.39066508  0.09055288    -0.08260
C1149       C  0.82298603  0.37074496  0.10285328     0.62120
H1150       H  0.80311051  0.43727145  0.12369016     0.12810
H1151       H  0.71093230  0.37942798  0.04358861     0.12830
C1152       C  0.68807520  0.44483842  0.06814310     0.62350
F1153       F  0.84582759  0.39170942  0.12478616    -0.22810
F1154       F  0.84365629  0.36170095  0.07510414    -0.20140
F1155       F  0.80972597  0.33994254  0.12040532    -0.19820
F1156       F  0.69510883  0.47590161  0.04845561    -0.19870
F1157       F  0.67129264  0.45480187  0.09800782    -0.20190
F1158       F  0.66316159  0.42139686  0.05054534    -0.22870
C1159       C  0.97364259  0.26339713  0.73185251    -0.05700
C1160       C  0.00135225  0.24411122  0.71598923     0.00220
C1161       C  0.52647422  0.22439773  0.73601257    -0.08350
C1162       C  0.52113789  0.22258008  0.77127463    -0.05730
C1163       C  0.99366153  0.24214073  0.78750386     0.00210
C1164       C  0.96986343  0.26374693  0.76743916    -0.08260
C1165       C  0.94121932  0.28806278  0.78276391     0.62120
H1166       H  0.95496041  0.27845479  0.71597287     0.12810
H1167       H  0.53930195  0.20647279  0.78671049     0.12830
C1168       C  0.56023783  0.20730020  0.72077522     0.62350
F1169       F  0.92939232  0.31368351  0.75951840    -0.22810
F1170       F  0.95610874  0.30744623  0.81043163    -0.20140
F1171       F  0.91038949  0.26661213  0.79260263    -0.19820
F1172       F  0.57836311  0.23221506  0.69918298    -0.19870
F1173       F  0.54961220  0.17564152  0.70292054    -0.20190
F1174       F  0.58545782  0.19787140  0.74567378    -0.22870
C1175       C  0.77855095  0.48463090  0.73176194    -0.05700
C1176       C  0.75281005  0.50719645  0.71618779     0.00220
C1177       C  0.73148134  0.02988692  0.73699592    -0.08350
C1178       C  0.73407288  0.02610376  0.77254946    -0.05730
C1179       C  0.75995535  0.50358260  0.78805759     0.00210
C1180       C  0.78381621  0.48370370  0.76715519    -0.08260
C1181       C  0.81531665  0.46194242  0.78136213     0.62120
H1182       H  0.79470328  0.46725305  0.71585847     0.12810
H1183       H  0.71650690  0.04204363  0.78851393     0.12830
C1184       C  0.70701960  0.05946306  0.72339193     0.62350
F1185       F  0.84157893  0.45586513  0.75678170    -0.22810
F1186       F  0.80141845  0.42801102  0.79269778    -0.20140
F1187       F  0.83336013  0.48101035  0.80773101    -0.19820
F1188       F  0.67013000  0.04715317  0.72544097    -0.19870
F1189       F  0.71504799  0.06909959  0.69017562    -0.20190
F1190       F  0.71236023  0.09117787  0.74281353    -0.22870
C1191       C  0.77514393  0.01832445  0.26749541    -0.05700
C1192       C  0.74560488  0.49998531  0.28469752     0.00220
C1193       C  0.71647005  0.48196472  0.26520900    -0.08350
C1194       C  0.71627046  0.48623215  0.22954120    -0.05730
C1195       C  0.74528362  0.50558936  0.21252608     0.00210
C1196       C  0.77600552  0.02062905  0.23175743    -0.08260
C1197       C  0.80960176  0.03943510  0.21494350     0.62120
H1198       H  0.79740412  0.03172632  0.28239734     0.12810
H1199       H  0.69343923  0.47382635  0.21462246     0.12830
C1200       C  0.68569392  0.45739282  0.28076620     0.62350
F1201       F  0.83934587  0.04416578  0.23738733    -0.22810
F1202       F  0.80053561  0.07379046  0.20357492    -0.20140
F1203       F  0.82098985  0.51850773  0.18791638    -0.19820
F1204       F  0.65464795  0.97754147  0.28550257    -0.19870
F1205       F  0.69644311  0.44256646  0.31148118    -0.20190
F1206       F  0.67614675  0.42808684  0.25928075    -0.22870
C1207       C  0.52204869  0.22766690  0.23433214    -0.05700
C1208       C  0.99318659  0.24078994  0.21416742     0.00220
C1209       C  0.96447498  0.25986675  0.22980712    -0.08350
C1210       C  0.96292728  0.26033328  0.26538622    -0.05730
C1211       C  0.99090215  0.24567161  0.28539896     0.00210
C1212       C  0.52212200  0.23100994  0.26981226    -0.08260
C1213       C  0.55575999  0.21987302  0.29027306     0.62120
H1214       H  0.54430101  0.21391975  0.22210097     0.12810
H1215       H  0.93993811  0.27282801  0.27776469     0.12830
C1216       C  0.93579614  0.28098825  0.21044411     0.62350
F1217       F  0.58537207  0.21291572  0.26945908    -0.22810
F1218       F  0.54713114  0.18828494  0.30873771    -0.20140
F1219       F  0.56720243  0.24808570  0.31228544    -0.19820
F1220       F  0.90225366  0.26062713  0.20975418    -0.19870
F1221       F  0.94663778  0.28909440  0.17758554    -0.20190
F1222       F  0.93075407  0.31426315  0.22655559    -0.22870
C1223       C  0.98114761  0.32132387  0.58755281    -0.05700
C1224       C  0.01329244  0.31436067  0.60601933     0.00220
C1225       C  0.54591301  0.33724738  0.60162821    -0.08350
C1226       C  0.54476337  0.36763449  0.57923954    -0.05730
C1227       C  0.01232123  0.37459376  0.56072010     0.00210
C1228       C  0.98019160  0.35041716  0.56428093    -0.08260
C1229       C  0.94589404  0.35298293  0.54177408     0.62120
H1230       H  0.95708869  0.30246014  0.59055289     0.12810
H1231       H  0.56898138  0.38624287  0.57622551     0.12830
C1232       C  0.58158622  0.32907833  0.62020423     0.62350
F1233       F  0.91799331  0.32699514  0.55025306    -0.22810
F1234       F  0.95555044  0.34638102  0.50851362    -0.20140
F1235       F  0.93137744  0.38730891  0.54456843    -0.19820
F1236       F  0.59075440  0.29328367  0.61350345    -0.19870
F1237       F  0.57684768  0.33321596  0.65481941    -0.20190
F1238       F  0.61100155  0.35247877  0.61017928    -0.22870
C1239       C  0.97803263  0.13107469  0.56769492    -0.05700
C1240       C  0.01270259  0.11521956  0.56522498     0.00220
C1241       C  0.54338519  0.12999953  0.58471716    -0.08350
C1242       C  0.53852758  0.16126692  0.60483136    -0.05730
C1243       C  0.00452710  0.17807353  0.60565987     0.00210
C1244       C  0.97349306  0.16270230  0.58748515    -0.08260
C1245       C  0.93609712  0.18000063  0.58879421     0.62120
H1246       H  0.95481751  0.11940961  0.55283769     0.12810
H1247       H  0.56169772  0.17379571  0.61920851     0.12830
C1248       C  0.58123440  0.11357433  0.58422078     0.62350
F1249       F  0.90915129  0.15993118  0.57019734    -0.22810
F1250       F  0.93913920  0.21533581  0.57563455    -0.20140
F1251       F  0.92444879  0.18159651  0.62213878    -0.19820
F1252       F  0.59814093  0.12148281  0.55351393    -0.19870
F1253       F  0.57747048  0.07578629  0.58877857    -0.20190
F1254       F  0.60435768  0.12792662  0.60985716    -0.22870
C1255       C  0.51096810  0.36186007  0.43059098    -0.05700
C1256       C  0.97702917  0.37874871  0.43350728     0.00220
C1257       C  0.94519811  0.36447315  0.41583681    -0.08350
C1258       C  0.94811627  0.33229550  0.39638415    -0.05730
C1259       C  0.98195626  0.31506808  0.39410729     0.00210
C1260       C  0.51406759  0.33003447  0.41100678    -0.08260
C1261       C  0.55131837  0.31252936  0.40821731     0.62120
H1262       H  0.53505898  0.37374582  0.44413770     0.12810
H1263       H  0.92409842  0.32024308  0.38289085     0.12830
C1264       C  0.90919387  0.38410677  0.41644521     0.62350
F1265       F  0.57938895  0.33303639  0.42499620    -0.22810
F1266       F  0.56098441  0.30993602  0.37438879    -0.20140
F1267       F  0.54911843  0.27763052  0.42233691    -0.19820
F1268       F  0.91533826  0.41925013  0.40347545    -0.19870
F1269       F  0.89665869  0.38633840  0.44945321    -0.20190
F1270       F  0.88166664  0.36597796  0.39699357    -0.22870
C1271       C  0.94815245  0.13356218  0.43130970    -0.05700
C1272       C  0.98171234  0.11576207  0.43600295     0.00220
C1273       C  0.51399053  0.12913922  0.41826351    -0.08350
C1274       C  0.51158281  0.16089020  0.39814399    -0.05730
C1275       C  0.97845629  0.17903873  0.39502932     0.00210
C1276       C  0.94591243  0.16489561  0.41089494    -0.08260
C1277       C  0.90899365  0.18270841  0.40601156     0.62120
H1278       H  0.92338190  0.12309588  0.44416663     0.12810
H1279       H  0.53581719  0.17244649  0.38506423     0.12830
C1280       C  0.55084542  0.11073396  0.42021006     0.62350
F1281       F  0.87997564  0.16221198  0.42083343    -0.22810
F1282       F  0.90111946  0.18572643  0.37165898    -0.20140
F1283       F  0.91064837  0.21744023  0.42054901    -0.19820
F1284       F  0.54608843  0.07498973  0.40818723    -0.19870
F1285       F  0.56385435  0.11076207  0.45341210    -0.20190
F1286       F  0.57788814  0.12873212  0.40061823    -0.22870
C1287       C  0.67362584  0.01506464  0.58000386    -0.05700
C1288       C  0.67448943  0.49196796  0.60842239     0.00220
C1289       C  0.64224055  0.46877417  0.61561868    -0.08350
C1290       C  0.61086721  0.46961574  0.59342477    -0.05730
C1291       C  0.61134260  0.49144607  0.56392659     0.00210
C1292       C  0.64371755  0.01401938  0.55702621    -0.08260
C1293       C  0.64792852  0.03544792  0.52442595     0.62120
H1294       H  0.69771160  0.03332336  0.57513417     0.12810
H1295       H  0.58591297  0.45272891  0.59862228     0.12830
C1296       C  0.64060951  0.44262669  0.64573092     0.62350
F1297       F  0.68215214  0.05446290  0.52188954    -0.22810
F1298       F  0.62093118  0.06086459  0.52240922    -0.20140
F1299       F  0.64470503  0.51070024  0.49781206    -0.19820
F1300       F  0.63649841  0.96215130  0.67547314    -0.19870
F1301       F  0.67260458  0.42324717  0.64757417    -0.20190
F1302       F  0.61063946  0.41731204  0.64311586    -0.22870
C1303       C  0.81757219  0.02575122  0.57684000    -0.05700
C1304       C  0.81396166  0.49975012  0.60315850     0.00220
C1305       C  0.84396055  0.47719048  0.61038273    -0.08350
C1306       C  0.87720801  0.48289375  0.59220089    -0.05730
C1307       C  0.88106799  0.50855007  0.56539026     0.00210
C1308       C  0.85031752  0.03040864  0.55743482    -0.08260
C1309       C  0.85138926  0.05856079  0.52878605     0.62120
H1310       H  0.79427137  0.04262402  0.57172483     0.12810
H1311       H  0.90020958  0.46604364  0.59849580     0.12830
C1312       C  0.84186849  0.44662090  0.63681978     0.62350
F1313       F  0.81950125  0.07821961  0.52745830    -0.22810
F1314       F  0.85435409  0.04083503  0.49785356    -0.20140
F1315       F  0.88126323  0.08365699  0.53350465    -0.19820
F1316       F  0.80583661  0.43252603  0.64138099    -0.19870
F1317       F  0.85597158  0.46016672  0.66744689    -0.20190
F1318       F  0.86264843  0.41756599  0.62677602    -0.22870
C1319       C  0.64801961  0.49508133  0.38377789    -0.05700
C1320       C  0.67867726  0.51783703  0.39438155     0.00220
C1321       C  0.67327778  0.04467541  0.41992265    -0.08350
C1322       C  0.63816645  0.04536825  0.43574616    -0.05730
C1323       C  0.60865423  0.51963482  0.42775177     0.00210
C1324       C  0.61296094  0.49591761  0.39920641    -0.08260
C1325       C  0.58125496  0.47129512  0.38444206     0.62120
H1326       H  0.65212230  0.47551643  0.36353587     0.12810
H1327       H  0.63424779  0.06504282  0.45590052     0.12830
C1328       C  0.70417544  0.07224047  0.43111405     0.62350
F1329       F  0.59052049  0.45591533  0.35362327    -0.22810
F1330       F  0.55052913  0.99184576  0.37861671    -0.20140
F1331       F  0.57229439  0.44264405  0.40653609    -0.19820
F1332       F  0.72348455  0.08601108  0.40325983    -0.19870
F1333       F  0.72834725  0.55540911  0.45289690    -0.20190
F1334       F  0.69021373  0.10182661  0.44813430    -0.22870
C1335       C  0.85122870  0.96544528  0.44314576    -0.05700
C1336       C  0.88353885  0.48613695  0.43301773     0.00220
C1337       C  0.88203702  0.50592667  0.40176515    -0.08350
C1338       C  0.84765431  0.50723298  0.38429990    -0.05730
C1339       C  0.81517683  0.48780907  0.39539754     0.00210
C1340       C  0.81780759  0.96447903  0.42415476    -0.08260
C1341       C  0.78697621  0.93719845  0.43546212     0.62120
H1342       H  0.85198471  0.94911889  0.46616918     0.12810
H1343       H  0.84565751  0.52450113  0.36199569     0.12830
C1344       C  0.91597482  0.52596319  0.38651157     0.62350
F1345       F  0.80166905  0.40347188  0.44226645    -0.22810
F1346       F  0.75953503  0.43112085  0.41099886    -0.20140
F1347       F  0.77126313  0.95002729  0.46483454    -0.19820
F1348       F  0.94481781  0.50238488  0.38449917    -0.19870
F1349       F  0.92660473  0.05611683  0.40633740    -0.20190
F1350       F  0.90898949  0.03860712  0.35397450    -0.22870
O1351       O  0.91513288  0.96744048  0.48378325    -0.80060
O1352       O  0.57471328  0.53276691  0.47936478    -0.80080
O1353       O  0.95245230  0.57848157  0.47854336    -0.80090
O1354       O  0.49953201  0.93810746  0.44632144    -0.80030
O1355       O  0.50858984  0.56357600  0.46445810    -0.80160
O1356       O  0.96213050  0.91150775  0.48339330    -0.80080
O1357       O  0.54935106  0.99318628  0.44509857    -0.80060
O1358       O  0.94485752  0.50885448  0.45205885    -0.80100
C1359       C  0.91681982  0.98686759  0.45670236     1.09630
C1360       C  0.57573886  0.51593931  0.45126430     1.09510
C1361       C  0.98117471  0.58489584  0.46087925     1.09650
C1362       C  0.47750139  0.91197856  0.45454231     1.09530
O1363       O  0.99021510  0.93312927  0.54990045    -0.80060
O1364       O  0.54459606  0.58174613  0.52327942    -0.80140
O1365       O  0.92036020  0.52645138  0.51782820    -0.80070
O1366       O  0.57820279  0.97151940  0.51312285    -0.80050
O1367       O  0.55189137  0.51147657  0.54641206    -0.80110
O1368       O  0.94139223  0.98729908  0.55295593    -0.80070
O1369       O  0.52743669  0.91149172  0.51147305    -0.80030
O1370       O  0.98767151  0.56103757  0.53632617    -0.80100
Co1371     Co  0.95494146  0.95234221  0.51711517     1.51530
Co1372     Co  0.52751704  0.53481044  0.50697608     1.51690
Co1373     Co  0.96871114  0.53261241  0.49277118     1.51570
Co1374     Co  0.53637940  0.95569293  0.47977988     1.51470
O1375       O  0.99696101  0.98714544  0.49974238    -1.42000
C1376       C  0.51107606  0.90860460  0.54006917     1.09560
C1377       C  0.01553817  0.58467530  0.54070228     1.09650
C1378       C  0.91629053  0.00865644  0.54513926     1.09580
C1379       C  0.57820763  0.49053773  0.54054736     1.09560
C1380       C  0.97930508  0.71360392  0.37583184     0.03210
C1381       C  0.97959125  0.74711966  0.39321517    -0.12940
C1382       C  0.98248802  0.78028243  0.37531260     0.00710
C1383       C  0.98596483  0.78004670  0.33991459    -0.11470
C1384       C  0.98671485  0.74636697  0.32251894     0.03200
C1385       C  0.98235273  0.71318303  0.34048898    -0.10890
H1386       H  0.97785441  0.74742572  0.42073328     0.08790
H1387       H  0.98865048  0.80585438  0.32609214     0.06320
H1388       H  0.98148772  0.68705968  0.32707837     0.06170
C1389       C  0.77942780  0.99427417  0.37687081     0.03210
C1390       C  0.74729935  0.00400402  0.39440612    -0.12940
C1391       C  0.71478774  0.01293283  0.37657236     0.00710
C1392       C  0.71515822  0.01270007  0.34075220    -0.11470
C1393       C  0.74608883  0.00134175  0.32277063     0.03200
C1394       C  0.77814691  0.99255223  0.34110750    -0.10890
H1395       H  0.74741995  0.50343887  0.42185306     0.08790
H1396       H  0.69074913  0.02049619  0.32682370     0.06320
H1397       H  0.80228141  0.98416185  0.32744443     0.06170
C1398       C  0.77926933  0.99845683  0.62365058     0.03210
C1399       C  0.78121461  0.00568906  0.65857158    -0.12940
C1400       C  0.74898953  0.00465505  0.67844633     0.00710
C1401       C  0.71399847  0.99851880  0.66247910    -0.11470
C1402       C  0.71109050  0.99219193  0.62720696     0.03200
C1403       C  0.74427301  0.99129860  0.60827592    -0.10890
H1404       H  0.80808077  0.01186855  0.67044756     0.08790
H1405       H  0.68940951  0.00021792  0.67747708     0.06320
H1406       H  0.74283993  0.48613672  0.58112274     0.06170
C1407       C  0.00342372  0.71288897  0.62453193     0.03210
C1408       C  0.01023576  0.74629017  0.60758356    -0.12940
C1409       C  0.01235999  0.77961818  0.62561302     0.00710
C1410       C  0.00910270  0.77918442  0.66117983    -0.11470
C1411       C  0.00351864  0.74537294  0.67844669     0.03200
C1412       C  0.99923687  0.71252882  0.65974773    -0.10890
H1413       H  0.01326683  0.74641808  0.58016628     0.08790
H1414       H  0.01049996  0.80489029  0.67526105     0.06320
H1415       H  0.99300293  0.68657554  0.67255082     0.06170
C1416       C  0.74515068  0.97697200  0.11906632     0.03210
C1417       C  0.74528002  0.97543489  0.15492116    -0.12940
C1418       C  0.74354500  0.00769941  0.17460488     0.00710
C1419       C  0.74029401  0.54168841  0.15799621    -0.11470
C1420       C  0.74066224  0.54366793  0.12230022     0.03200
C1421       C  0.74345056  0.01136866  0.10305274    -0.10890
H1422       H  0.74766829  0.94912758  0.16754937     0.08790
H1423       H  0.73776413  0.56661544  0.17275977     0.06320
H1424       H  0.74534742  0.01331312  0.07565572     0.06170
O1425       O  0.78795047  0.83263184  0.02394416    -0.80060
O1426       O  0.71018473  0.67823456  0.01790978    -0.80080
O1427       O  0.68756477  0.76256293  0.05362021    -0.80090
O1428       O  0.82379329  0.70316085  0.02203553    -0.80030
O1429       O  0.65861264  0.72933770  0.01431220    -0.80160
O1430       O  0.81832095  0.76115741  0.03632759    -0.80080
O1431       O  0.75461978  0.70476081  0.04987337    -0.80060
O1432       O  0.74445095  0.81163834  0.05712535    -0.80100
C1433       C  0.76795581  0.83715152  0.05003726     1.09630
C1434       C  0.72999635  0.67885512  0.04505009     1.09510
C1435       C  0.66007352  0.74273798  0.04423721     1.09650
C1436       C  0.83559977  0.73049270  0.03922335     1.09450
O1437       O  0.83485716  0.79766998  0.97781708    -0.80060
O1438       O  0.68936695  0.75488539  0.94894814    -0.80140
O1439       O  0.72525323  0.83920577  0.98995122    -0.80070
O1440       O  0.77088794  0.67657302  0.98565615    -0.80050
O1441       O  0.73503758  0.69900285  0.94797554    -0.80110
O1442       O  0.76440050  0.81138234  0.95729976    -0.80070
O1443       O  0.80881159  0.74188904  0.96572587    -0.80030
O1444       O  0.66486121  0.79065078  0.98667041    -0.80100
Co1445     Co  0.78763246  0.78460606  0.99570655     1.51530
Co1446     Co  0.70086715  0.71800673  0.98286067     1.51690
Co1447     Co  0.70740904  0.79842726  0.02132340     1.51570
Co1448     Co  0.78014190  0.72525742  0.00936302     1.51470
O1449       O  0.73790456  0.75727964  0.00254960    -1.42000
C1450       C  0.83441675  0.76771228  0.96093601     1.09560
C1451       C  0.66479581  0.77627156  0.95693049     1.09650
C1452       C  0.74450127  0.83862287  0.96316068     1.09580
C1453       C  0.75544472  0.67368435  0.95700203     1.09560
C1454       C  0.52803697  0.72950144  0.12458100     0.03210
C1455       C  0.52620324  0.73961228  0.15889432    -0.12940
C1456       C  0.99365613  0.73213117  0.17741084     0.00710
C1457       C  0.96217385  0.71596175  0.16083230    -0.11470
C1458       C  0.96316414  0.70806660  0.12598513     0.03200
C1459       C  0.99683392  0.71200431  0.10885142    -0.10890
H1460       H  0.54988919  0.75383929  0.17119463     0.08790
H1461       H  0.93615373  0.71218557  0.17423484     0.06320
H1462       H  0.99752975  0.70532760  0.08206679     0.06170
C1463       C  0.76355896  0.97103181  0.88013493     0.03210
C1464       C  0.76009550  0.97064957  0.84457833    -0.12940
C1465       C  0.76289603  0.00373635  0.82591051     0.00710
C1466       C  0.76670845  0.53755477  0.84350800    -0.11470
C1467       C  0.76926208  0.53858449  0.87913912     0.03200
C1468       C  0.76821746  0.00499585  0.89719636    -0.10890
H1469       H  0.75418426  0.94466401  0.83165860     0.08790
H1470       H  0.76638481  0.56309335  0.82942293     0.06320
H1471       H  0.76960867  0.00530113  0.92474974     0.06170
C1472       C  0.53033456  0.75359968  0.87781447     0.03210
C1473       C  0.52863753  0.75048165  0.84236971    -0.12940
C1474       C  0.99451634  0.74300661  0.82542725     0.00710
C1475       C  0.96225827  0.73642618  0.84480710    -0.11470
C1476       C  0.96277230  0.74275225  0.88017690     0.03200
C1477       C  0.99705722  0.75238820  0.89613829    -0.10890
H1478       H  0.55401270  0.75355338  0.82788572     0.08790
H1479       H  0.93668033  0.72700692  0.83235640     0.06320
H1480       H  0.99818398  0.75878504  0.92298700     0.06170
C1481       C  0.78703525  0.63807414  0.91220674    -0.05700
C1482       C  0.75858024  0.63966767  0.93621204     0.00220
C1483       C  0.73452314  0.60801876  0.94130349    -0.08350
C1484       C  0.73891686  0.57631760  0.92167368    -0.05730
C1485       C  0.76746541  0.57424357  0.89797159     0.00210
C1486       C  0.79244066  0.60555229  0.89332302    -0.08260
C1487       C  0.82487697  0.60532527  0.86900887     0.62120
H1488       H  0.80539787  0.66233787  0.90864286     0.12810
H1489       H  0.72009855  0.55236881  0.92502619     0.12830
C1490       C  0.70522365  0.60700045  0.96848098     0.62350
F1491       F  0.85300528  0.63063162  0.87900756    -0.22810
F1492       F  0.81300698  0.61467665  0.83677715    -0.20140
F1493       F  0.83983007  0.57101927  0.86801115    -0.19820
F1494       F  0.68243288  0.63611622  0.96399868    -0.19870
F1495       F  0.72280711  0.60934222  0.99979095    -0.20190
F1496       F  0.68307937  0.57462176  0.96783663    -0.22870
C1497       C  0.78179508  0.88097220  0.92583740    -0.05700
C1498       C  0.74711364  0.87199191  0.94068138     0.00220
C1499       C  0.71791145  0.89671934  0.93590475    -0.08350
C1500       C  0.72419921  0.92774611  0.91469433    -0.05730
C1501       C  0.75878205  0.93618586  0.89988437     0.00210
C1502       C  0.78833634  0.91290530  0.90598808    -0.08260
C1503       C  0.82698216  0.92259492  0.89267831     0.62120
H1504       H  0.80458799  0.86381339  0.93160538     0.12810
H1505       H  0.70253226  0.94687244  0.91064199     0.12830
C1506       C  0.68129071  0.89306552  0.95485004     0.62350
F1507       F  0.85227897  0.89721271  0.90269874    -0.22810
F1508       F  0.83939671  0.95689344  0.90481219    -0.20140
F1509       F  0.82608139  0.92336894  0.85762080    -0.19820
F1510       F  0.68763970  0.90209272  0.98849673    -0.19870
F1511       F  0.66550939  0.85775655  0.95289652    -0.20190
F1512       F  0.65551065  0.91650297  0.94196990    -0.22870
C1513       C  0.88141623  0.68922620  0.06555143    -0.05700
C1514       C  0.86785530  0.72509475  0.06281361     0.00220
C1515       C  0.88623092  0.75398579  0.08160004    -0.08350
C1516       C  0.91621352  0.74635798  0.10269367    -0.05730
C1517       C  0.92905479  0.71092583  0.10558368     0.00210
C1518       C  0.91209623  0.68174987  0.08647696    -0.08260
C1519       C  0.92629099  0.64320292  0.08850080     0.62120
H1520       H  0.86810522  0.66687909  0.05097987     0.12810
H1521       H  0.93080299  0.76844993  0.11666984     0.12830
C1522       C  0.87376339  0.79254387  0.08032737     0.62350
F1523       F  0.90538898  0.61836882  0.06846912    -0.22810
F1524       F  0.92485961  0.63103745  0.12180085    -0.20140
F1525       F  0.96260189  0.64345978  0.07749364    -0.19820
F1526       F  0.83750480  0.79119993  0.09101062    -0.19870
F1527       F  0.87648051  0.80583624  0.04741933    -0.20190
F1528       F  0.89452365  0.81641535  0.10150571    -0.22870
C1529       C  0.59339710  0.74831563  0.05136748    -0.05700
C1530       C  0.62747456  0.74049354  0.06631049     0.00220
C1531       C  0.62988103  0.73518629  0.10202571    -0.08350
C1532       C  0.59661249  0.73078915  0.12012495    -0.05730
C1533       C  0.56224943  0.73774441  0.10488748     0.00210
C1534       C  0.56142550  0.75060261  0.07083923    -0.08260
C1535       C  0.52888342  0.76924072  0.05458891     0.62120
H1536       H  0.59242084  0.75606005  0.02480139     0.12810
H1537       H  0.59735603  0.72243601  0.14651903     0.12830
C1538       C  0.66676715  0.73571322  0.12137276     0.62350
F1539       F  0.54177952  0.80071564  0.03762108    -0.22810
F1540       F  0.50346437  0.78013172  0.07819535    -0.20140
F1541       F  0.51127307  0.74553693  0.03135193    -0.19820
F1542       F  0.68350695  0.77086476  0.12018527    -0.19870
F1543       F  0.69038805  0.71119814  0.10746904    -0.20190
F1544       F  0.66197424  0.72650544  0.15526381    -0.22870
C1545       C  0.89646679  0.75927466  0.88443933    -0.05700
C1546       C  0.92732155  0.74323480  0.89974018     0.00220
C1547       C  0.92436355  0.73186436  0.93428866    -0.08350
C1548       C  0.89481610  0.74336797  0.95355540    -0.05730
C1549       C  0.86509697  0.76027414  0.93845809     0.00210
C1550       C  0.86427830  0.76581581  0.90299983    -0.08260
C1551       C  0.82967326  0.77809287  0.88509604     0.62120
H1552       H  0.89777843  0.76742700  0.85804896     0.12810
H1553       H  0.89380784  0.73701254  0.98052764     0.12830
C1554       C  0.94986413  0.70601644  0.95170741     0.62350
F1555       F  0.83424797  0.78029611  0.85023018    -0.22810
F1556       F  0.82117674  0.81235437  0.89688519    -0.20140
F1557       F  0.80025029  0.75308134  0.89148298    -0.19820
F1558       F  0.97354923  0.72609674  0.97339593    -0.19870
F1559       F  0.96961474  0.68665429  0.92853710    -0.20190
F1560       F  0.92932873  0.68028653  0.97073710    -0.22870
C1561       C  0.60285911  0.74974766  0.94722972    -0.05700
C1562       C  0.63100976  0.77447244  0.93567169     0.00220
C1563       C  0.62945199  0.78679363  0.90143277    -0.08350
C1564       C  0.59517742  0.78222879  0.88383082    -0.05730
C1565       C  0.56664294  0.75791726  0.89611477     0.00210
C1566       C  0.57386783  0.73734271  0.92574962    -0.08260
C1567       C  0.55695617  0.69900123  0.93261769     0.62120
H1568       H  0.60670914  0.73531971  0.97095772     0.12810
H1569       H  0.59148150  0.79562632  0.85955491     0.12830
C1570       C  0.66406131  0.79979067  0.88216553     0.62350
F1571       F  0.58520544  0.67495205  0.93689368    -0.22810
F1572       F  0.53495945  0.68551102  0.90596755    -0.20140
F1573       F  0.53672007  0.69912503  0.96218873    -0.19820
F1574       F  0.68805356  0.77134255  0.88058143    -0.19870
F1575       F  0.68206649  0.82955630  0.89793696    -0.20190
F1576       F  0.65566781  0.80994621  0.84915771    -0.22870
C1577       C  0.76495401  0.63555424  0.07950112    -0.05700
C1578       C  0.72988526  0.64584883  0.06781601     0.00220
C1579       C  0.69798393  0.62223064  0.07501140    -0.08350
C1580       C  0.70272111  0.58992258  0.09420194    -0.05730
C1581       C  0.73789933  0.57955264  0.10474729     0.00210
C1582       C  0.76964911  0.60220937  0.09676900    -0.08260
C1583       C  0.80845180  0.59029351  0.10498048     0.62120
H1584       H  0.78927871  0.65286052  0.07314427     0.12810
H1585       H  0.67904076  0.57152800  0.10012652     0.12830
C1586       C  0.65909884  0.63007978  0.06262587     0.62350
F1587       F  0.83553076  0.61638607  0.09509679    -0.22810
F1588       F  0.81452203  0.55764728  0.08827495    -0.20140
F1589       F  0.81232807  0.58504451  0.13949145    -0.19820
F1590       F  0.65658424  0.62671661  0.02778071    -0.19870
F1591       F  0.65060445  0.66512379  0.07171840    -0.20190
F1592       F  0.63232693  0.60592628  0.07648487    -0.22870
C1593       C  0.78347984  0.92483543  0.10547751    -0.05700
C1594       C  0.75092386  0.94290849  0.09892492     0.00220
C1595       C  0.72425063  0.92670799  0.07587279    -0.08350
C1596       C  0.73146080  0.89257406  0.06040009    -0.05730
C1597       C  0.76440916  0.87432785  0.06674733     0.00210
C1598       C  0.79023891  0.89066612  0.09055124    -0.08260
C1599       C  0.82298708  0.87074711  0.10285101     0.62120
H1600       H  0.80310992  0.93727289  0.12368825     0.12810
H1601       H  0.71093101  0.87942648  0.04358900     0.12830
C1602       C  0.68807306  0.94483668  0.06814352     0.62350
F1603       F  0.84582938  0.89171298  0.12478219    -0.22810
F1604       F  0.84365619  0.86170213  0.07510142    -0.20140
F1605       F  0.80972849  0.83994532  0.12040474    -0.19820
F1606       F  0.69510581  0.97590084  0.04845710    -0.19870
F1607       F  0.67129025  0.95479846  0.09800863    -0.20190
F1608       F  0.66316008  0.92139518  0.05054499    -0.22870
C1609       C  0.97364286  0.76339524  0.73185212    -0.05700
C1610       C  0.00135308  0.74410987  0.71598907     0.00220
C1611       C  0.52647515  0.72439678  0.73601272    -0.08350
C1612       C  0.52113840  0.72257895  0.77127472    -0.05730
C1613       C  0.99366168  0.74213926  0.78750364     0.00210
C1614       C  0.96986340  0.76374507  0.76743874    -0.08260
C1615       C  0.94121887  0.78806064  0.78276321     0.62120
H1616       H  0.95496055  0.77845257  0.71597234     0.12810
H1617       H  0.53930254  0.70647189  0.78671072     0.12830
C1618       C  0.56023944  0.70730003  0.72077582     0.62350
F1619       F  0.92939171  0.81368110  0.75951751    -0.22810
F1620       F  0.95610788  0.80744439  0.81043092    -0.20140
F1621       F  0.91038921  0.76660969  0.79260184    -0.19820
F1622       F  0.57836410  0.73221495  0.69918322    -0.19870
F1623       F  0.54961487  0.67564069  0.70292168    -0.20190
F1624       F  0.58545966  0.69787257  0.74567468    -0.22870
C1625       C  0.77854715  0.98463110  0.73176145    -0.05700
C1626       C  0.75280572  0.00719647  0.71618776     0.00220
C1627       C  0.73148500  0.52988670  0.73699547    -0.08350
C1628       C  0.73407549  0.52610327  0.77254903    -0.05730
C1629       C  0.75995308  0.00358312  0.78805751     0.00210
C1630       C  0.78381335  0.98370410  0.76715462    -0.08260
C1631       C  0.81531413  0.96194288  0.78136098     0.62120
H1632       H  0.79469909  0.96725314  0.71585770     0.12810
H1633       H  0.71650903  0.54204302  0.78851313     0.12830
C1634       C  0.70702363  0.55946286  0.72339093     0.62350
F1635       F  0.84157578  0.95586545  0.75678001    -0.22810
F1636       F  0.80141622  0.92801155  0.79269706    -0.20140
F1637       F  0.83335826  0.98101094  0.80772943    -0.19820
F1638       F  0.67013398  0.54715285  0.72543891    -0.19870
F1639       F  0.71505308  0.56909961  0.69017488    -0.20190
F1640       F  0.71236356  0.59117755  0.74281279    -0.22870
C1641       C  0.77515018  0.51832658  0.26749506    -0.05700
C1642       C  0.74559843  0.99998255  0.28469711     0.00220
C1643       C  0.71646409  0.98196218  0.26520781    -0.08350
C1644       C  0.71626540  0.98623004  0.22954003    -0.05730
C1645       C  0.74527883  0.00558776  0.21252569     0.00210
C1646       C  0.77601098  0.52063052  0.23175702    -0.08260
C1647       C  0.80960701  0.53943592  0.21494224     0.62120
H1648       H  0.79741078  0.53172857  0.28239639     0.12810
H1649       H  0.69343462  0.97382433  0.21462068     0.12830
C1650       C  0.68568752  0.95739024  0.28076429     0.62350
F1651       F  0.83935181  0.54416617  0.23738535    -0.22810
F1652       F  0.80054110  0.57379142  0.20357382    -0.20140
F1653       F  0.82098574  0.01850722  0.18791789    -0.19820
F1654       F  0.65465375  0.47754349  0.28550331    -0.19870
F1655       F  0.69643672  0.94256222  0.31147855    -0.20190
F1656       F  0.67613933  0.92808545  0.25927779    -0.22870
C1657       C  0.52204970  0.72766873  0.23433186    -0.05700
C1658       C  0.99318722  0.74079141  0.21416745     0.00220
C1659       C  0.96447550  0.75986781  0.22980746    -0.08350
C1660       C  0.96292813  0.76033419  0.26538659    -0.05730
C1661       C  0.99090341  0.74567286  0.28539907     0.00210
C1662       C  0.52212334  0.73101176  0.26981198    -0.08260
C1663       C  0.55576180  0.71987544  0.29027243     0.62120
H1664       H  0.54430210  0.71392188  0.22210052     0.12810
H1665       H  0.93993885  0.77282851  0.27776527     0.12830
C1666       C  0.93579622  0.78098905  0.21044476     0.62350
F1667       F  0.58537398  0.71291931  0.26945816    -0.22810
F1668       F  0.54713396  0.68828685  0.30873668    -0.20140
F1669       F  0.56720365  0.74808802  0.31228513    -0.19820
F1670       F  0.90225396  0.76062755  0.20975499    -0.19870
F1671       F  0.94663750  0.78909548  0.17758614    -0.20190
F1672       F  0.93075389  0.81426379  0.22655642    -0.22870
C1673       C  0.98114482  0.82132341  0.58755451    -0.05700
C1674       C  0.01329055  0.81436094  0.60602002     0.00220
C1675       C  0.54591030  0.83724857  0.60162837    -0.08350
C1676       C  0.54475906  0.86763580  0.57924005    -0.05730
C1677       C  0.01231608  0.87459437  0.56072155     0.00210
C1678       C  0.98018720  0.85041693  0.56428298    -0.08260
C1679       C  0.94588892  0.85298196  0.54177692     0.62120
H1680       H  0.95708655  0.80245891  0.59055499     0.12810
H1681       H  0.56897653  0.88624474  0.57622538     0.12830
C1682       C  0.58158437  0.82908036  0.62020338     0.62350
F1683       F  0.91798904  0.82699351  0.55025648    -0.22810
F1684       F  0.95554456  0.84638044  0.50851619    -0.20140
F1685       F  0.93137156  0.88730756  0.54457166    -0.19820
F1686       F  0.59075367  0.79328626  0.61350158    -0.19870
F1687       F  0.57684655  0.83321690  0.65481877    -0.20190
F1688       F  0.61099864  0.85248206  0.61017828    -0.22870
C1689       C  0.97803897  0.63107418  0.56769433    -0.05700
C1690       C  0.01270938  0.61521997  0.56522431     0.00220
C1691       C  0.54339178  0.63000092  0.58471617    -0.08350
C1692       C  0.53853338  0.66126819  0.60483035    -0.05730
C1693       C  0.00453231  0.67807374  0.60565905     0.00210
C1694       C  0.97349858  0.66270163  0.58748449    -0.08260
C1695       C  0.93610206  0.67999882  0.58879367     0.62120
H1696       H  0.95482404  0.61940842  0.55283728     0.12810
H1697       H  0.56170324  0.67379762  0.61920741     0.12830
C1698       C  0.58124145  0.61357662  0.58421965     0.62350
F1699       F  0.90915670  0.65992860  0.57019690    -0.22810
F1700       F  0.93914302  0.71533402  0.57563395    -0.20140
F1701       F  0.92445378  0.68159438  0.62213827    -0.19820
F1702       F  0.59814737  0.62148464  0.55351241    -0.19870
F1703       F  0.57747846  0.57578864  0.58877826    -0.20190
F1704       F  0.60436482  0.62793008  0.60985545    -0.22870
C1705       C  0.51096408  0.86186004  0.43059313    -0.05700
C1706       C  0.97702449  0.87874765  0.43350872     0.00220
C1707       C  0.94519440  0.86447142  0.41583723    -0.08350
C1708       C  0.94811418  0.83229417  0.39638431    -0.05730
C1709       C  0.98195486  0.81506785  0.39410812     0.00210
C1710       C  0.51406523  0.83003494  0.41100856    -0.08260
C1711       C  0.55131679  0.81253124  0.40821967     0.62120
H1712       H  0.53505425  0.87374636  0.44414051     0.12810
H1713       H  0.92409708  0.82024124  0.38289026     0.12830
C1714       C  0.90918949  0.88410395  0.41644492     0.62350
F1715       F  0.57938632  0.83303912  0.42499916    -0.22810
F1716       F  0.56098368  0.80993852  0.37439130    -0.20140
F1717       F  0.54911786  0.77763228  0.42233904    -0.19820
F1718       F  0.91533319  0.91924762  0.40347565    -0.19870
F1719       F  0.89665328  0.88633479  0.44945264    -0.20190
F1720       F  0.88166333  0.86597458  0.39699246    -0.22870
C1721       C  0.94815777  0.63356187  0.43131001    -0.05700
C1722       C  0.98171800  0.61576219  0.43600263     0.00220
C1723       C  0.51399548  0.62913939  0.41826218    -0.08350
C1724       C  0.51158693  0.66089031  0.39814269    -0.05730
C1725       C  0.97846020  0.67903862  0.39502897     0.00210
C1726       C  0.94591685  0.66489515  0.41089525    -0.08260
C1727       C  0.90899763  0.68270735  0.40601255     0.62120
H1728       H  0.92338764  0.62309538  0.44416749     0.12810
H1729       H  0.53582086  0.67244676  0.38506236     0.12830
C1730       C  0.55085045  0.61073417  0.42020774     0.62350
F1731       F  0.87998019  0.66221021  0.42083454    -0.22810
F1732       F  0.90112286  0.68572568  0.37166011    -0.20140
F1733       F  0.91065188  0.71743896  0.42055041    -0.19820
F1734       F  0.54609307  0.57498973  0.40818547    -0.19870
F1735       F  0.56386066  0.61076276  0.45340938    -0.20190
F1736       F  0.57789235  0.62873208  0.40061483    -0.22870
C1737       C  0.67363453  0.51506366  0.58000103    -0.05700
C1738       C  0.67448094  0.99196831  0.60842470     0.00220
C1739       C  0.64223230  0.96877410  0.61562066    -0.08350
C1740       C  0.61085909  0.96961552  0.59342655    -0.05730
C1741       C  0.61133459  0.99144605  0.56392845     0.00210
C1742       C  0.64372583  0.51401882  0.55702376    -0.08260
C1743       C  0.64793630  0.53544781  0.52442361     0.62120
H1744       H  0.69772042  0.53332207  0.57513100     0.12810
H1745       H  0.58590500  0.95272833  0.59862370     0.12830
C1746       C  0.64060163  0.94262635  0.64573269     0.62350
F1747       F  0.68216015  0.55446227  0.52188672    -0.22810
F1748       F  0.62093936  0.56086503  0.52240787    -0.20140
F1749       F  0.64469833  0.01069976  0.49781482    -0.19820
F1750       F  0.63650385  0.46215172  0.67547096    -0.19870
F1751       F  0.67259596  0.92324554  0.64757431    -0.20190
F1752       F  0.61063043  0.91731293  0.64311872    -0.22870
C1753       C  0.81758161  0.52575541  0.57684254    -0.05700
C1754       C  0.81395254  0.99974623  0.60315629     0.00220
C1755       C  0.84395311  0.97718940  0.61038264    -0.08350
C1756       C  0.87720165  0.98289551  0.59220299    -0.05730
C1757       C  0.88106063  0.00854996  0.56539076     0.00210
C1758       C  0.85032618  0.53041116  0.55743615    -0.08260
C1759       C  0.85139830  0.55856375  0.52878776     0.62120
H1760       H  0.79428149  0.54262945  0.57172839     0.12810
H1761       H  0.90020395  0.96604694  0.59849967     0.12830
C1762       C  0.84186360  0.94661832  0.63681829     0.62350
F1763       F  0.81951115  0.57822393  0.52746103    -0.22810
F1764       F  0.85436151  0.54083824  0.49785495    -0.20140
F1765       F  0.88127338  0.58365870  0.53350597    -0.19820
F1766       F  0.80583042  0.93253650  0.64139866    -0.19870
F1767       F  0.85599167  0.96015672  0.66743911    -0.20190
F1768       F  0.86262460  0.91755550  0.62675960    -0.22870
C1769       C  0.64801050  0.99508196  0.38377586    -0.05700
C1770       C  0.67867026  0.01783376  0.39438151     0.00220
C1771       C  0.67328255  0.54468051  0.41992041    -0.08350
C1772       C  0.63817113  0.54537169  0.43574395    -0.05730
C1773       C  0.60864749  0.01963448  0.42775216     0.00210
C1774       C  0.61295198  0.99591997  0.39920452    -0.08260
C1775       C  0.58124362  0.97130249  0.38443762     0.62120
H1776       H  0.65211126  0.97551845  0.36353225     0.12810
H1777       H  0.63425076  0.56504752  0.45589690     0.12830
C1778       C  0.70417783  0.57225005  0.43110808     0.62350
F1779       F  0.59050695  0.95592727  0.35361621    -0.22810
F1780       F  0.55053882  0.49183485  0.37861704    -0.20140
F1781       F  0.57228140  0.94264822  0.40652770    -0.19820
F1782       F  0.72347979  0.58602380  0.40325103    -0.19870
F1783       F  0.72833798  0.05539575  0.45290686    -0.20190
F1784       F  0.69021443  0.60183347  0.44813112    -0.22870
C1785       C  0.85123472  0.46544949  0.44314677    -0.05700
C1786       C  0.88353203  0.98613469  0.43301762     0.00220
C1787       C  0.88202951  0.00592535  0.40176557    -0.08350
C1788       C  0.84764679  0.00723063  0.38430013    -0.05730
C1789       C  0.81517004  0.98780492  0.39539704     0.00210
C1790       C  0.81781350  0.46448409  0.42415601    -0.08260
C1791       C  0.78698096  0.43720541  0.43546452     0.62120
H1792       H  0.85199014  0.44912399  0.46617077     0.12810
H1793       H  0.84564933  0.02449939  0.36199640     0.12830
C1794       C  0.91596651  0.02596411  0.38651282     0.62350
F1795       F  0.80166580  0.90346507  0.44226166    -0.22810
F1796       F  0.75952995  0.93111464  0.41099666    -0.20140
F1797       F  0.77126784  0.45003701  0.46483584    -0.19820
F1798       F  0.94481069  0.00238730  0.38449956    -0.19870
F1799       F  0.92661457  0.55611639  0.40633497    -0.20190
F1800       F  0.90899824  0.53860506  0.35397278    -0.22870
loop_ 
_geom_bond_atom_site_label_1 
_geom_bond_atom_site_label_2 
_geom_bond_distance 
_geom_bond_site_symmetry_2 
_ccdc_geom_bond_type 
O1            C9   1.278       .  A
O1          Co21   2.030       .  S
O2           C10   1.264       .  A
O2          Co22   2.031       .  S
O3           C11   1.264       .  A
O3          Co23   1.878       .  S
O4           C12   1.249       .  A
O4          Co24   1.943   1_655  S
O5          C911   1.293   1_455  A
O5          Co22   2.099       .  S
O6          C912   1.267       .  A
O6          Co21   2.017       .  S
O7          C460   1.247       .  A
O7          Co24   1.970       .  S
O8          C459   1.268   1_545  A
O8          Co23   1.984       .  S
C9          O458   1.268       .  A
C9          C436   1.510       .  S
C10         O457   1.247   1_545  A
C10         C873   1.512       .  S
C11         O905   1.293       .  A
C11         C372   1.487       .  S
C12         O906   1.267       .  A
C12        C1256   1.461       .  S
O13         C926   1.258       .  A
O13         Co21   1.956       .  S
O14         C927   1.266       .  A
O14         Co22   1.889       .  S
O15         C478   1.260       .  A
O15         Co23   2.012       .  S
O16         C479   1.280       .  A
O16         Co24   2.046       .  S
O17          C29   1.269   1_545  A
O17         Co22   1.987       .  S
O18          C28   1.258       .  A
O18         Co21   1.978       .  S
O19          C26   1.277       .  A
O19         Co24   2.046       .  S
O20          C27   1.295       .  A
O20         Co23   2.089       .  S
Co21         O25   2.043       .  S
Co22       O1375   2.019   1_445  S
Co23        O475   2.002   1_545  S
Co24        O925   2.032   1_455  S
O25       Co1372   2.019       .  S
O25        Co473   2.002       .  S
O25        Co924   2.032       .  S
C26         O913   1.258   1_455  A
C26        C1227   1.481       .  S
C27         O914   1.266       .  A
C27         C340   1.477       .  S
C28         O465   1.260       .  A
C28         C407   1.505       .  S
C29         O466   1.280       .  A
C29         C841   1.498       .  S
C30         C375   1.464       .  S
C30          C31   1.394       .  A
C30          C35   1.396       .  A
C31          C32   1.395       .  A
C31          H36   1.085       .  S
C32         C359   1.463       .  S
C32          C33   1.399       .  A
C33          C34   1.402       .  A
C33          H37   1.084       .  S
C34         C311   1.469       .  S
C34          C35   1.399       .  A
C35          H38   1.083       .  S
C39         C439   1.502       .  S
C39          C40   1.414       .  A
C39          C44   1.408       .  A
C40          C41   1.412       .  A
C40         H495   1.080       .  S
C41         C420   1.503       .  S
C41          C42   1.409       .  A
C42          C43   1.406       .  A
C42          H46   1.082       .  S
C43         C292   1.498       .  S
C43          C44   1.407       .  A
C44          H47   1.084       .  S
H45         C490   1.080       .  S
C48         C404   1.492       .  S
C48          C49   1.398       .  A
C48          C53   1.404       .  A
C49          C50   1.405       .  A
C49          H54   1.083       .  S
C50         C276   1.492       .  S
C50          C51   1.410       .  A
C51          C52   1.408       .  A
C51          H55   1.074       .  S
C52         C388   1.505       .  S
C52          C53   1.417       .  A
C53         H506   1.084       .  S
H56         C503   1.084       .  S
C57         C343   1.467       .  S
C57          C58   1.395       .  A
C57          C62   1.395       .  A
C58          C59   1.400       .  A
C58          H63   1.085       .  S
C59         C324   1.477       .  S
C59          C60   1.405       .  A
C60          C61   1.409       .  A
C60          H64   1.083       .  S
C61         C260   1.480       .  S
C61          C62   1.401       .  A
C62          H65   1.083       .  S
C66         C244   1.493       .  S
C66          C67   1.411       .  A
C66          C71   1.403       .  A
C67          C68   1.408       .  A
C67          H72   1.084       .  S
C68         C295   1.494       .  S
C68         C519   1.406       .  A
C69          C70   1.406       .  A
C69         C518   1.406       .  A
C69          H73   1.083       .  S
C70         C231   1.482       .  S
C70         C521   1.403       .  A
C71         C520   1.403       .  A
C71          H74   1.082       .  S
O75          C83   1.275       .  A
O75         Co95   2.065   1_554  S
O76          C84   1.277       .  A
O76         Co96   2.035   1_554  S
O77          C85   1.245       .  A
O77         Co97   1.934       .  S
O78          C86   1.253       .  A
O78         Co98   1.866       .  S
O79          C85   1.273       .  A
O79         Co96   2.030   1_554  S
O80          C86   1.308       .  A
O80         Co95   2.137   1_554  S
O81          C84   1.271       .  A
O81         Co98   1.974       .  S
O82          C83   1.255       .  A
O82         Co97   1.971       .  S
C83         C247   1.512       .  S
C84         C228   1.496       .  S
C85         C180   1.466       .  S
C86         C164   1.501       .  S
O87         C100   1.273       .  A
O87         Co95   1.885       .  S
O88         C101   1.250       .  A
O88         Co96   1.948       .  S
O89         C102   1.268       .  A
O89         Co97   2.011   1_556  S
O90         C103   1.254       .  A
O90         Co98   2.008   1_556  S
O91         C103   1.256       .  A
O91         Co96   1.999       .  S
O92         C102   1.274       .  A
O92         Co95   1.997       .  S
O93         C100   1.295       .  A
O93         Co98   2.085   1_556  S
O94         C101   1.280       .  A
O94         Co97   2.049   1_556  S
Co95         O99   2.022   1_556  S
Co96         O99   2.046   1_556  S
Co97         O99   2.042       .  S
Co98         O99   1.979       .  S
C100        C199   1.458       .  S
C101        C212   1.468       .  S
C102        C148   1.500       .  S
C103        C132   1.490       .  S
C104        C183   1.480       .  S
C104        C105   1.401       .  A
C104       C1009   1.400   1_455  A
C105       C1006   1.401   1_455  A
C105        H110   1.083       .  S
C106        C308   1.479       .  S
C106        C107   1.403       .  A
C106       C1005   1.401       .  A
C107        C108   1.401       .  A
C107        H111   1.082       .  S
C108        C167   1.469       .  S
C108        C109   1.394       .  A
C109       C1004   1.400       .  A
C109        H112   1.081       .  S
C113        C151   1.488       .  S
C113        C114   1.403       .  A
C113        C118   1.404       .  A
C114        C115   1.408       .  A
C114        H119   1.081       .  S
C115        C279   1.491       .  S
C115        C566   1.408       .  A
C116        C117   1.404       .  A
C116        C565   1.408       .  A
C116        H120   1.081       .  S
C117        C135   1.495       .  S
C117        C568   1.410       .  A
C118        C567   1.410       .  A
C118        H121   1.084       .  S
C122        C215   1.487       .  S
C122        C123   1.399       .  A
C122       C1027   1.404   1_455  A
C123       C1024   1.406   1_455  A
C123        H128   1.083       .  S
C124        C263   1.492       .  S
C124        C125   1.406       .  A
C124       C1023   1.406       .  A
C125        C126   1.409       .  A
C125        H129   1.078       .  S
C126        C196   1.499       .  S
C126        C127   1.407       .  A
C127       C1022   1.404       .  A
C127        H130   1.081       .  S
C131        C132   1.404       .  A
C131        C136   1.417       .  A
C131        H138   1.083       .  S
C132        C133   1.417       .  A
C133        C134   1.402       .  A
C133        C140   1.509       .  S
C134        C135   1.400       .  A
C134        H139   1.083       .  S
C135        C136   1.425       .  A
C136        C137   1.518       .  S
C137        F141   1.385       .  S
C137        F142   1.382       .  S
C137        F143   1.383       .  S
C140        F144   1.383       .  S
C140        F145   1.379       .  S
C140        F146   1.385       .  S
C147        C148   1.407       .  A
C147        C152   1.409       .  A
C147        H154   1.079       .  S
C148        C149   1.430       .  A
C149        C150   1.412       .  A
C149        C156   1.521       .  S
C150        C151   1.400       .  A
C150        H155   1.083       .  S
C151        C152   1.413       .  A
C152        C153   1.516       .  S
C153        F157   1.385       .  S
C153        F158   1.383       .  S
C153        F159   1.379       .  S
C156        F160   1.377       .  S
C156        F161   1.376       .  S
C156        F162   1.385       .  S
C163        C164   1.418       .  A
C163        C168   1.409       .  A
C163        H170   1.081       .  S
C164        C165   1.414       .  A
C165        C166   1.395       .  A
C165        C172   1.493       .  S
C166        C167   1.394       .  A
C166        H171   1.082       .  S
C167        C168   1.407       .  A
C168        C169   1.517       .  S
C169        F173   1.384       .  S
C169        F174   1.383       .  S
C169        F175   1.382       .  S
C172        F176   1.375       .  S
C172        F177   1.384       .  S
C172        F178   1.386       .  S
C179        C180   1.399       .  A
C179        C184   1.396       .  A
C179        H186   1.083       .  S
C180        C181   1.420       .  A
C181        C182   1.402       .  A
C181        C188   1.524       .  S
C182        C183   1.405       .  A
C182        H187   1.082       .  S
C183        C184   1.419       .  A
C184        C185   1.520       .  S
C185        F189   1.385       .  S
C185        F190   1.383       .  S
C185        F191   1.381       .  S
C188        F192   1.383       .  S
C188        F193   1.380       .  S
C188        F194   1.385       .  S
C195        C196   1.412       .  A
C195        C200   1.407       .  A
C195        H202   1.080       .  S
C196        C197   1.424       .  A
C197        C198   1.394       .  A
C197        C204   1.508       .  S
C198        C199   1.390       .  A
C198        H203   1.086       .  S
C199        C200   1.409       .  A
C200        C201   1.513       .  S
C201        F205   1.385       .  S
C201        F206   1.377       .  S
C201        F207   1.384       .  S
C204        F208   1.380       .  S
C204        F209   1.377       .  S
C204        F210   1.385       .  S
C211        C212   1.398       .  A
C211        C216   1.392       .  A
C211        H218   1.082       .  S
C212        C213   1.421       .  A
C213        C214   1.411       .  A
C213        C220   1.519       .  S
C214        C215   1.408       .  A
C214        H219   1.082       .  S
C215        C216   1.414       .  A
C216        C217   1.515       .  S
C217        F221   1.385       .  S
C217        F222   1.381       .  S
C217        F223   1.379       .  S
C220        F224   1.383       .  S
C220        F225   1.374       .  S
C220        F226   1.385       .  S
C227        C228   1.409       .  A
C227        C232   1.405       .  A
C227        H234   1.082       .  S
C228        C229   1.428       .  A
C229        C230   1.412       .  A
C229        C236   1.520       .  S
C230        C231   1.400       .  A
C230        H235   1.082       .  S
C231        C232   1.411       .  A
C232        C233   1.517       .  S
C233        F237   1.382       .  S
C233        F238   1.383       .  S
C233        F239   1.377       .  S
C236        F240   1.377       .  S
C236        F241   1.372       .  S
C236        F242   1.385       .  S
C243        C244   1.396       .  A
C243        C248   1.406       .  A
C243        H250   1.083       .  S
C244        C245   1.419       .  A
C245        C246   1.417       .  A
C245        C252   1.519       .  S
C246        C247   1.410       .  A
C246        H251   1.079       .  S
C247        C248   1.420       .  A
C248        C249   1.493       .  S
C249        F253   1.385       .  S
C249        F254   1.377       .  S
C249        F255   1.381       .  S
C252        F256   1.382       .  S
C252        F257   1.383       .  S
C252        F258   1.383       .  S
C259        C260   1.401       .  A
C259        C264   1.408       .  A
C259        H266   1.083       .  S
C260       C1161   1.417       .  A
C261        C262   1.403       .  A
C261       C1160   1.417       .  A
C261        C268   1.523       .  S
C262       C1163   1.406   1_455  A
C262        H267   1.082       .  S
C263        C264   1.425       .  A
C263       C1162   1.406       .  A
C264        C265   1.522       .  S
C265        F269   1.385       .  S
C265        F270   1.383       .  S
C265        F271   1.381       .  S
C268        F272   1.384       .  S
C268        F273   1.381       .  S
C268        F274   1.385       .  S
C275        C276   1.406       .  A
C275        C280   1.404       .  A
C275        H282   1.083       .  S
C276        C727   1.420       .  A
C277        C278   1.408       .  A
C277        C726   1.420       .  A
C277        C284   1.519       .  S
C278        C729   1.407       .  A
C278        H283   1.084       .  S
C279        C280   1.419       .  A
C279        C728   1.407       .  A
C280        C281   1.519       .  S
C281        F285   1.385       .  S
C281        F286   1.381       .  S
C281        F287   1.384       .  S
C284        F288   1.383       .  S
C284        F289   1.382       .  S
C284        F290   1.385       .  S
C291        C296   1.409       .  A
C291        C742   1.405   1_545  A
C291        H298   1.082       .  S
C292        C293   1.424       .  A
C292        C741   1.405       .  A
C293        C294   1.411       .  A
C293        C300   1.519       .  S
C294        C295   1.404       .  A
C294        H299   1.083       .  S
C295        C746   1.419       .  A
C296        C745   1.419       .  A
C296        C297   1.516       .  S
C297        F301   1.385       .  S
C297        F302   1.379       .  S
C297        F753   1.384       .  S
C300        F305   1.383       .  S
C300        F306   1.385       .  S
C300        F754   1.382       .  S
F303        C747   1.384       .  S
F304        C750   1.382       .  S
C307        C312   1.400       .  A
C307       C1208   1.405   1_455  A
C307        H314   1.083       .  S
C308        C309   1.420       .  A
C308       C1207   1.405       .  A
C309        C310   1.401       .  A
C309        C316   1.518       .  S
C310        C311   1.400       .  A
C310        H315   1.085       .  S
C311       C1212   1.415       .  A
C312       C1211   1.415   1_455  A
C312        C313   1.521       .  S
C313        F317   1.385       .  S
C313        F318   1.381       .  S
C313        F319   1.384       .  S
C316        F320   1.383       .  S
C316        F321   1.381       .  S
C316        F322   1.385       .  S
C323        C324   1.395       .  A
C323        C328   1.400       .  A
C323        H330   1.083       .  S
C324       C1225   1.415       .  A
C325        C326   1.414       .  A
C325       C1224   1.415       .  A
C325        C332   1.515       .  S
C326       C1227   1.405       .  A
C326        H331   1.082       .  S
C327        C926   1.481       .  S
C327        C328   1.423       .  A
C327       C1226   1.405       .  A
C328        C329   1.520       .  S
C329        F333   1.385       .  S
C329        F334   1.381       .  S
C329        F335   1.381       .  S
C332        F336   1.383       .  S
C332        F337   1.383       .  S
C332        F338   1.383       .  S
C339        C340   1.407       .  A
C339        C344   1.404       .  A
C339        H346   1.083       .  S
C340       C1241   1.420       .  A
C341        C342   1.402       .  A
C341       C1240   1.420       .  A
C341        C348   1.517       .  S
C342       C1243   1.398       .  A
C342        H347   1.083       .  S
C343        C344   1.410       .  A
C343       C1242   1.398       .  A
C344        C345   1.518       .  S
C345        F349   1.385       .  S
C345        F350   1.383       .  S
C345        F351   1.383       .  S
C348        F352   1.382       .  S
C348        F353   1.383       .  S
C348        F354   1.385       .  S
C355        C360   1.398       .  A
C355       C1256   1.402   1_455  A
C355        H362   1.083       .  S
C356        C912   1.461       .  S
C356        C357   1.409       .  A
C356       C1255   1.402       .  A
C357        C358   1.405       .  A
C357        C364   1.513       .  S
C358        C359   1.403       .  A
C358        H363   1.082       .  S
C359       C1260   1.411       .  A
C360       C1259   1.411   1_455  A
C360        C361   1.520       .  S
C361        F365   1.385       .  S
C361        F366   1.383       .  S
C361        F367   1.382       .  S
C364        F368   1.382       .  S
C364        F369   1.382       .  S
C364        F370   1.384       .  S
C371        C372   1.411       .  A
C371        C376   1.398       .  A
C371        H378   1.082       .  S
C372       C1273   1.425       .  A
C373        C374   1.404       .  A
C373       C1272   1.425   1_455  A
C373        C380   1.519       .  S
C374       C1275   1.398   1_455  A
C374        H379   1.083       .  S
C375        C376   1.407       .  A
C375       C1274   1.398       .  A
C376        C377   1.520       .  S
C377        F381   1.384       .  S
C377        F382   1.383       .  S
C377        F383   1.382       .  S
C380        F384   1.382       .  S
C380        F385   1.383       .  S
C380        F386   1.385       .  S
C387        C392   1.398       .  A
C387        C838   1.399   1_545  A
C387        H394   1.082       .  S
C388        C389   1.429       .  A
C388        C837   1.399       .  A
C389        C390   1.423       .  A
C389        C396   1.518       .  S
C390        C391   1.405       .  A
C390        H395   1.082       .  S
C391        C479   1.498       .  S
C391        C842   1.418       .  A
C392        C841   1.418   1_545  A
C392        C393   1.505       .  S
C393        F397   1.385       .  S
C393        F398   1.377       .  S
C393        F849   1.379       .  S
C396        F401   1.383       .  S
C396        F402   1.383       .  S
C396        F850   1.380       .  S
F399        C843   1.379       .  S
F400        C846   1.380       .  S
C403        C408   1.414       .  A
C403        C854   1.404   1_545  A
C403        H410   1.082       .  S
C404        C405   1.417       .  A
C404        C853   1.404       .  A
C405        C406   1.407       .  A
C405        C412   1.521       .  S
C406        C407   1.410       .  A
C406        H411   1.083       .  S
C407        C858   1.429       .  A
C408        C857   1.429       .  A
C408        C409   1.521       .  S
C409        F413   1.385       .  S
C409        F414   1.383       .  S
C409        F415   1.383       .  S
C412        F416   1.383       .  S
C412        F417   1.382       .  S
C412        F418   1.385       .  S
C419        C420   1.403       .  A
C419        C424   1.409       .  A
C419        H426   1.083       .  S
C420        C871   1.421       .  A
C421        C422   1.417       .  A
C421        C870   1.421       .  A
C421        C428   1.518       .  S
C422        C873   1.410       .  A
C422        H427   1.082       .  S
C423        C460   1.512       .  S
C423        C424   1.429       .  A
C423        C872   1.410       .  A
C424        C425   1.522       .  S
C425        F429   1.385       .  S
C425        F431   1.383       .  S
C425        F880   1.384       .  S
C428        F432   1.383       .  S
C428        F434   1.385       .  S
C428        F883   1.381       .  S
F430        C875   1.384       .  S
F433        C878   1.381       .  S
C435        C440   1.409       .  A
C435        C886   1.412       .  A
C435        H442   1.083       .  S
C436        C437   1.426       .  A
C436        C885   1.412       .  A
C437        C438   1.413       .  A
C437        C444   1.518       .  S
C438        C439   1.407       .  A
C438        H443   1.083       .  S
C439        C890   1.419       .  A
C440        C889   1.419       .  A
C440        C441   1.518       .  S
C441        F447   1.383       .  S
C441        F895   1.385       .  S
C441        F896   1.382       .  S
C444        F448   1.384       .  S
C444        F899   1.378       .  S
C444        F900   1.385       .  S
F445        C891   1.385       .  S
F446        C891   1.382       .  S
F449        C894   1.378       .  S
F450        C894   1.385       .  S
O451        C459   1.278       .  A
O451       Co471   2.030       .  S
O452        C460   1.264       .  A
O452       Co472   2.031       .  S
O453        C461   1.264       .  A
O453       Co473   1.878       .  S
O454        C462   1.249       .  A
O454       Co474   1.943   1_655  S
O455       C1361   1.293   1_455  A
O455       Co472   2.099       .  S
O456       C1362   1.267       .  A
O456       Co471   2.017       .  S
O457       Co474   1.970       .  S
O458       Co473   1.984       .  S
C459        C886   1.510       .  S
C461       O1355   1.293       .  A
C461        C822   1.487       .  S
C462       O1356   1.267       .  A
C462       C1706   1.461       .  S
O463       C1376   1.258       .  A
O463       Co471   1.956       .  S
O464       C1377   1.266       .  A
O464       Co472   1.889       .  S
O465       Co473   2.012       .  S
O466       Co474   2.046       .  S
O467        C479   1.269       .  A
O467       Co472   1.987       .  S
O468        C478   1.258   1_565  A
O468       Co471   1.978       .  S
O469        C476   1.277       .  A
O469       Co474   2.046       .  S
O470        C477   1.295       .  A
O470       Co473   2.089       .  S
Co471       O475   2.043       .  S
Co472       O925   2.019   1_455  S
Co474      O1375   2.032   1_455  S
O475       Co922   2.019   1_565  S
O475      Co1374   2.032       .  S
C476       O1363   1.258   1_455  A
C476       C1677   1.481       .  S
C477       O1364   1.266       .  A
C477        C790   1.477       .  S
C478        C857   1.505       .  S
C480        C825   1.464       .  S
C480        C481   1.394       .  A
C480        C485   1.396       .  A
C481        C482   1.395       .  A
C481        H486   1.085       .  S
C482        C809   1.463       .  S
C482        C483   1.399       .  A
C483        C484   1.402       .  A
C483        H487   1.084       .  S
C484        C761   1.469       .  S
C484        C485   1.399       .  A
C485        H488   1.083       .  S
C489        C889   1.502       .  S
C489        C490   1.414   1_565  A
C489        C494   1.408       .  A
C490        C491   1.412       .  A
C491        C870   1.503       .  S
C491        C492   1.409       .  A
C492        C493   1.406       .  A
C492        H496   1.082       .  S
C493        C742   1.498   1_545  S
C493        C494   1.407   1_545  A
C494        H497   1.084       .  S
C498        C854   1.492       .  S
C498        C499   1.398   1_565  A
C498        C503   1.404       .  A
C499        C500   1.405       .  A
C499        H504   1.083       .  S
C500        C726   1.492       .  S
C500        C501   1.410   1_545  A
C501        C502   1.408       .  A
C501        H505   1.074   1_565  S
C502        C838   1.505       .  S
C502        C503   1.417       .  A
C507        C793   1.467       .  S
C507        C508   1.395       .  A
C507        C512   1.395       .  A
C508        C509   1.400       .  A
C508        H513   1.085       .  S
C509        C774   1.477       .  S
C509        C510   1.405       .  A
C510        C511   1.409       .  A
C510        H514   1.083       .  S
C511        C710   1.480       .  S
C511        C512   1.401       .  A
C512        H515   1.083       .  S
C516        C694   1.493       .  S
C516        C517   1.411       .  A
C516        C521   1.403   1_565  A
C517        C518   1.408   1_565  A
C517        H522   1.084       .  S
C518        C745   1.494       .  S
C519        C520   1.406       .  A
C519        H523   1.083       .  S
C520        C681   1.482       .  S
C521        H524   1.082       .  S
O525        C533   1.275       .  A
O525       Co545   2.065   1_554  S
O526        C534   1.277       .  A
O526       Co546   2.035   1_554  S
O527        C535   1.245       .  A
O527       Co547   1.934       .  S
O528        C536   1.253       .  A
O528       Co548   1.866       .  S
O529        C535   1.273       .  A
O529       Co546   2.030   1_554  S
O530        C536   1.308       .  A
O530       Co545   2.137   1_554  S
O531        C534   1.271       .  A
O531       Co548   1.974       .  S
O532        C533   1.255       .  A
O532       Co547   1.971       .  S
C533        C697   1.512       .  S
C534        C678   1.496       .  S
C535        C630   1.466       .  S
C536        C614   1.501       .  S
O537        C550   1.273       .  A
O537       Co545   1.885       .  S
O538        C551   1.250       .  A
O538       Co546   1.948       .  S
O539        C552   1.268       .  A
O539       Co547   2.011   1_556  S
O540        C553   1.254       .  A
O540       Co548   2.008   1_556  S
O541        C553   1.256       .  A
O541       Co546   1.999       .  S
O542        C552   1.274       .  A
O542       Co545   1.997       .  S
O543        C550   1.295       .  A
O543       Co548   2.085   1_556  S
O544        C551   1.280       .  A
O544       Co547   2.049   1_556  S
Co545       O549   2.022   1_556  S
Co546       O549   2.046   1_556  S
Co547       O549   2.042       .  S
Co548       O549   1.979       .  S
C550        C649   1.458       .  S
C551        C662   1.468       .  S
C552        C598   1.500       .  S
C553        C582   1.490       .  S
C554        C633   1.480       .  S
C554        C555   1.401       .  A
C554       C1459   1.400   1_455  A
C555       C1456   1.401   1_455  A
C555        H560   1.083       .  S
C556        C758   1.479       .  S
C556       C1455   1.401       .  A
C556        C557   1.403       .  A
C557        C558   1.401       .  A
C557        H561   1.082       .  S
C558        C617   1.469       .  S
C558        C559   1.394       .  A
C559       C1454   1.400       .  A
C559        H562   1.081       .  S
C563        C601   1.488       .  S
C563        C564   1.403       .  A
C563        C568   1.404   1_565  A
C564        C565   1.408   1_565  A
C564        H569   1.081       .  S
C565        C729   1.491       .  S
C566        C567   1.404       .  A
C566        H570   1.081       .  S
C567        C585   1.495       .  S
C568        H571   1.084       .  S
C572        C665   1.487       .  S
C572        C573   1.399       .  A
C572       C1477   1.404   1_455  A
C573       C1474   1.406   1_455  A
C573        H578   1.083       .  S
C574        C713   1.492       .  S
C574       C1473   1.406       .  A
C574        C575   1.406       .  A
C575        C576   1.409       .  A
C575        H579   1.078       .  S
C576        C646   1.499       .  S
C576        C577   1.407       .  A
C577       C1472   1.404       .  A
C577        H580   1.081       .  S
C581        C582   1.404       .  A
C581        C586   1.417       .  A
C581        H588   1.083       .  S
C582        C583   1.417       .  A
C583        C584   1.402       .  A
C583        C590   1.509       .  S
C584        C585   1.400       .  A
C584        H589   1.083       .  S
C585        C586   1.425       .  A
C586        C587   1.518       .  S
C587        F591   1.385       .  S
C587        F592   1.382       .  S
C587        F593   1.383       .  S
C590        F594   1.383       .  S
C590        F595   1.379       .  S
C590        F596   1.385       .  S
C597        C598   1.407       .  A
C597        C602   1.409       .  A
C597        H604   1.079       .  S
C598        C599   1.430       .  A
C599        C600   1.412       .  A
C599        C606   1.521       .  S
C600        C601   1.400       .  A
C600        H605   1.083       .  S
C601        C602   1.413       .  A
C602        C603   1.516       .  S
C603        F607   1.385       .  S
C603        F608   1.383       .  S
C603        F609   1.379       .  S
C606        F610   1.377       .  S
C606        F611   1.376       .  S
C606        F612   1.385       .  S
C613        C614   1.418       .  A
C613        C618   1.409       .  A
C613        H620   1.081       .  S
C614        C615   1.414       .  A
C615        C616   1.395       .  A
C615        C622   1.493       .  S
C616        C617   1.394       .  A
C616        H621   1.082       .  S
C617        C618   1.407       .  A
C618        C619   1.517       .  S
C619        F623   1.384       .  S
C619        F624   1.383       .  S
C619        F625   1.382       .  S
C622        F626   1.375       .  S
C622        F627   1.384       .  S
C622        F628   1.386       .  S
C629        C630   1.399       .  A
C629        C634   1.396       .  A
C629        H636   1.083       .  S
C630        C631   1.420       .  A
C631        C632   1.402       .  A
C631        C638   1.524       .  S
C632        C633   1.405       .  A
C632        H637   1.082       .  S
C633        C634   1.419       .  A
C634        C635   1.520       .  S
C635        F639   1.385       .  S
C635        F640   1.383       .  S
C635        F641   1.381       .  S
C638        F642   1.383       .  S
C638        F643   1.380       .  S
C638        F644   1.385       .  S
C645        C646   1.412       .  A
C645        C650   1.407       .  A
C645        H652   1.080       .  S
C646        C647   1.424       .  A
C647        C648   1.394       .  A
C647        C654   1.508       .  S
C648        C649   1.390       .  A
C648        H653   1.086       .  S
C649        C650   1.409       .  A
C650        C651   1.513       .  S
C651        F655   1.385       .  S
C651        F656   1.377       .  S
C651        F657   1.384       .  S
C654        F658   1.380       .  S
C654        F659   1.377       .  S
C654        F660   1.385       .  S
C661        C662   1.398       .  A
C661        C666   1.392       .  A
C661        H668   1.082       .  S
C662        C663   1.421       .  A
C663        C664   1.411       .  A
C663        C670   1.519       .  S
C664        C665   1.408       .  A
C664        H669   1.082       .  S
C665        C666   1.414       .  A
C666        C667   1.515       .  S
C667        F671   1.385       .  S
C667        F672   1.381       .  S
C667        F673   1.379       .  S
C670        F674   1.383       .  S
C670        F675   1.374       .  S
C670        F676   1.385       .  S
C677        C678   1.409       .  A
C677        C682   1.405       .  A
C677        H684   1.082       .  S
C678        C679   1.428       .  A
C679        C680   1.412       .  A
C679        C686   1.520       .  S
C680        C681   1.400       .  A
C680        H685   1.082       .  S
C681        C682   1.411       .  A
C682        C683   1.517       .  S
C683        F687   1.382       .  S
C683        F688   1.383       .  S
C683        F689   1.377       .  S
C686        F690   1.377       .  S
C686        F691   1.372       .  S
C686        F692   1.385       .  S
C693        C694   1.396       .  A
C693        C698   1.406       .  A
C693        H700   1.083       .  S
C694        C695   1.419       .  A
C695        C696   1.417       .  A
C695        C702   1.519       .  S
C696        C697   1.410       .  A
C696        H701   1.079       .  S
C697        C698   1.420       .  A
C698        C699   1.493       .  S
C699        F703   1.385       .  S
C699        F704   1.377       .  S
C699        F705   1.381       .  S
C702        F706   1.382       .  S
C702        F707   1.383       .  S
C702        F708   1.383       .  S
C709        C710   1.401       .  A
C709        C714   1.408       .  A
C709        H716   1.083       .  S
C710       C1611   1.417       .  A
C711       C1610   1.417       .  A
C711        C712   1.403       .  A
C711        C718   1.523       .  S
C712       C1613   1.406   1_455  A
C712        H717   1.082       .  S
C713       C1612   1.406       .  A
C713        C714   1.425       .  A
C714        C715   1.522       .  S
C715        F719   1.385       .  S
C715        F720   1.383       .  S
C715        F721   1.381       .  S
C718        F722   1.384       .  S
C718        F723   1.381       .  S
C718        F724   1.385       .  S
C725        C726   1.406   1_565  A
C725        C730   1.404       .  A
C725        H732   1.083       .  S
C727        C728   1.408       .  A
C727        C734   1.519       .  S
C728        H733   1.084       .  S
C729        C730   1.419   1_545  A
C730        C731   1.519       .  S
C731        F735   1.385       .  S
C731        F736   1.381       .  S
C731        F737   1.384       .  S
C734        F738   1.383       .  S
C734        F739   1.382       .  S
C734        F740   1.385       .  S
C741        C746   1.409       .  A
C741        H748   1.082       .  S
C742        C743   1.424       .  A
C743        C744   1.411       .  A
C743        C750   1.519       .  S
C744        C745   1.404   1_565  A
C744        H749   1.083       .  S
C746        C747   1.516       .  S
C747        F751   1.385       .  S
C747        F752   1.379       .  S
C750        F755   1.383       .  S
C750        F756   1.385       .  S
C757       C1658   1.405   1_455  A
C757        C762   1.400       .  A
C757        H764   1.083       .  S
C758       C1657   1.405       .  A
C758        C759   1.420       .  A
C759        C760   1.401       .  A
C759        C766   1.518       .  S
C760        C761   1.400       .  A
C760        H765   1.085       .  S
C761       C1662   1.415       .  A
C762       C1661   1.415   1_455  A
C762        C763   1.521       .  S
C763        F767   1.385       .  S
C763        F768   1.381       .  S
C763        F769   1.384       .  S
C766        F770   1.383       .  S
C766        F771   1.381       .  S
C766        F772   1.385       .  S
C773        C774   1.395       .  A
C773        C778   1.400       .  A
C773        H780   1.083       .  S
C774       C1675   1.415       .  A
C775       C1674   1.415       .  A
C775        C776   1.414       .  A
C775        C782   1.515       .  S
C776       C1677   1.405       .  A
C776        H781   1.082       .  S
C777       C1376   1.481       .  S
C777       C1676   1.405       .  A
C777        C778   1.423       .  A
C778        C779   1.520       .  S
C779        F783   1.385       .  S
C779        F784   1.381       .  S
C779        F785   1.381       .  S
C782        F786   1.383       .  S
C782        F787   1.383       .  S
C782        F788   1.383       .  S
C789        C790   1.407       .  A
C789        C794   1.404       .  A
C789        H796   1.083       .  S
C790       C1691   1.420       .  A
C791       C1690   1.420       .  A
C791        C792   1.402       .  A
C791        C798   1.517       .  S
C792       C1693   1.398       .  A
C792        H797   1.083       .  S
C793       C1692   1.398       .  A
C793        C794   1.410       .  A
C794        C795   1.518       .  S
C795        F799   1.385       .  S
C795        F800   1.383       .  S
C795        F801   1.383       .  S
C798        F802   1.382       .  S
C798        F803   1.383       .  S
C798        F804   1.385       .  S
C805       C1706   1.402   1_455  A
C805        C810   1.398       .  A
C805        H812   1.083       .  S
C806       C1362   1.461       .  S
C806       C1705   1.402       .  A
C806        C807   1.409       .  A
C807        C808   1.405       .  A
C807        C814   1.513       .  S
C808        C809   1.403       .  A
C808        H813   1.082       .  S
C809       C1710   1.411       .  A
C810       C1709   1.411   1_455  A
C810        C811   1.520       .  S
C811        F815   1.385       .  S
C811        F816   1.383       .  S
C811        F817   1.382       .  S
C814        F818   1.382       .  S
C814        F819   1.382       .  S
C814        F820   1.384       .  S
C821        C822   1.411       .  A
C821        C826   1.398       .  A
C821        H828   1.082       .  S
C822       C1723   1.425       .  A
C823       C1722   1.425   1_455  A
C823        C824   1.404       .  A
C823        C830   1.519       .  S
C824       C1725   1.398   1_455  A
C824        H829   1.083       .  S
C825       C1724   1.398       .  A
C825        C826   1.407       .  A
C826        C827   1.520       .  S
C827        F831   1.384       .  S
C827        F832   1.383       .  S
C827        F833   1.382       .  S
C830        F834   1.382       .  S
C830        F835   1.383       .  S
C830        F836   1.385       .  S
C837        C842   1.398       .  A
C837        H844   1.082       .  S
C838        C839   1.429       .  A
C839        C840   1.423       .  A
C839        C846   1.518       .  S
C840        C841   1.405       .  A
C840        H845   1.082       .  S
C842        C843   1.505       .  S
C843        F847   1.385       .  S
C843        F848   1.377       .  S
C846        F851   1.383       .  S
C846        F852   1.383       .  S
C853        C858   1.414       .  A
C853        H860   1.082       .  S
C854        C855   1.417       .  A
C855        C856   1.407       .  A
C855        C862   1.521       .  S
C856        C857   1.410   1_565  A
C856        H861   1.083       .  S
C858        C859   1.521       .  S
C859        F863   1.385       .  S
C859        F864   1.383       .  S
C859        F865   1.383       .  S
C862        F866   1.383       .  S
C862        F867   1.382       .  S
C862        F868   1.385       .  S
C869        C870   1.403   1_565  A
C869        C874   1.409       .  A
C869        H876   1.083       .  S
C871        C872   1.417       .  A
C871        C878   1.518       .  S
C872        H877   1.082       .  S
C873        C874   1.429   1_545  A
C874        C875   1.522       .  S
C875        F879   1.385       .  S
C875        F881   1.383       .  S
C878        F882   1.383       .  S
C878        F884   1.385       .  S
C885        C890   1.409       .  A
C885        H892   1.083       .  S
C886        C887   1.426   1_565  A
C887        C888   1.413       .  A
C887        C894   1.518       .  S
C888        C889   1.407   1_545  A
C888        H893   1.083       .  S
C890        C891   1.518       .  S
C891        F897   1.383       .  S
C894        F898   1.384       .  S
O901        C909   1.278       .  A
O901       Co921   2.030       .  S
O902        C910   1.264       .  A
O902       Co922   2.031       .  S
O903        C911   1.264       .  A
O903       Co923   1.878       .  S
O904        C912   1.249       .  A
O904       Co924   1.943       .  S
O905       Co922   2.099       .  S
O906       Co921   2.017       .  S
O907       C1360   1.247       .  A
O907       Co924   1.970       .  S
O908       C1359   1.268   1_545  A
O908       Co923   1.984       .  S
C909       O1358   1.268       .  A
C909       C1336   1.510       .  S
C910       O1357   1.247   1_545  A
C910       C1773   1.512       .  S
C911       C1272   1.487       .  S
O913       Co921   1.956       .  S
O914       Co922   1.889       .  S
O915       C1378   1.260       .  A
O915       Co923   2.012       .  S
O916       C1379   1.280       .  A
O916       Co924   2.046       .  S
O917        C929   1.269   1_545  A
O917       Co922   1.987       .  S
O918        C928   1.258       .  A
O918       Co921   1.978       .  S
O919        C926   1.277       .  A
O919       Co924   2.046       .  S
O920        C927   1.295   1_655  A
O920       Co923   2.089       .  S
Co921       O925   2.043       .  S
Co923      O1375   2.002   1_545  S
O925      Co1373   2.002       .  S
C927       C1240   1.477       .  S
C928       O1365   1.260       .  A
C928       C1307   1.505       .  S
C929       O1366   1.280       .  A
C929       C1741   1.498       .  S
C930       C1275   1.464       .  S
C930        C931   1.394       .  A
C930        C935   1.396       .  A
C931        C932   1.395       .  A
C931        H936   1.085       .  S
C932       C1259   1.463       .  S
C932        C933   1.399       .  A
C933        C934   1.402       .  A
C933        H937   1.084       .  S
C934       C1211   1.469       .  S
C934        C935   1.399       .  A
C935        H938   1.083       .  S
C939       C1339   1.502       .  S
C939        C940   1.414       .  A
C939        C944   1.408       .  A
C940        C941   1.412       .  A
C940       H1395   1.080       .  S
C941       C1320   1.503       .  S
C941        C942   1.409       .  A
C942        C943   1.406       .  A
C942        H946   1.082       .  S
C943       C1192   1.498       .  S
C943        C944   1.407       .  A
C944        H947   1.084       .  S
H945       C1390   1.080       .  S
C948       C1304   1.492       .  S
C948        C949   1.398       .  A
C948        C953   1.404       .  A
C949        C950   1.405       .  A
C949        H954   1.083       .  S
C950       C1176   1.492       .  S
C950        C951   1.410       .  A
C951        C952   1.408       .  A
C951        H955   1.074       .  S
C952       C1288   1.505       .  S
C952        C953   1.417       .  A
C953       H1406   1.084       .  S
H956       C1403   1.084       .  S
C957       C1243   1.467       .  S
C957        C958   1.395       .  A
C957        C962   1.395   1_455  A
C958        C959   1.400       .  A
C958        H963   1.085       .  S
C959       C1224   1.477       .  S
C959        C960   1.405       .  A
C960        C961   1.409       .  A
C960        H964   1.083       .  S
C961       C1160   1.480       .  S
C961        C962   1.401   1_455  A
C962        H965   1.083       .  S
C966       C1144   1.493       .  S
C966        C967   1.411       .  A
C966        C971   1.403       .  A
C967        C968   1.408       .  A
C967        H972   1.084       .  S
C968       C1195   1.494       .  S
C968       C1419   1.406       .  A
C969       C1418   1.406       .  A
C969        C970   1.406       .  A
C969        H973   1.083       .  S
C970       C1131   1.482       .  S
C970       C1421   1.403       .  A
C971       C1420   1.403       .  A
C971        H974   1.082       .  S
O975        C983   1.275       .  A
O975       Co995   2.065   1_554  S
O976        C984   1.277       .  A
O976       Co996   2.035   1_554  S
O977        C985   1.245       .  A
O977       Co997   1.934       .  S
O978        C986   1.253       .  A
O978       Co998   1.866       .  S
O979        C985   1.273       .  A
O979       Co996   2.030   1_554  S
O980        C986   1.308       .  A
O980       Co995   2.137   1_554  S
O981        C984   1.271       .  A
O981       Co998   1.974       .  S
O982        C983   1.255       .  A
O982       Co997   1.971       .  S
C983       C1147   1.512       .  S
C984       C1128   1.496       .  S
C985       C1080   1.466       .  S
C986       C1064   1.501       .  S
O987       C1000   1.273       .  A
O987       Co995   1.885       .  S
O988       C1001   1.250       .  A
O988       Co996   1.948       .  S
O989       C1002   1.268       .  A
O989       Co997   2.011   1_556  S
O990       C1003   1.254       .  A
O990       Co998   2.008   1_556  S
O991       C1003   1.256       .  A
O991       Co996   1.999       .  S
O992       C1002   1.274       .  A
O992       Co995   1.997       .  S
O993       C1000   1.295       .  A
O993       Co998   2.085   1_556  S
O994       C1001   1.280       .  A
O994       Co997   2.049   1_556  S
Co995       O999   2.022   1_556  S
Co996       O999   2.046   1_556  S
Co997       O999   2.042       .  S
Co998       O999   1.979       .  S
C1000      C1099   1.458       .  S
C1001      C1112   1.468       .  S
C1002      C1048   1.500       .  S
C1003      C1032   1.490       .  S
C1004      C1083   1.480       .  S
C1004      C1005   1.401       .  A
C1005      H1010   1.083       .  S
C1006      C1208   1.479       .  S
C1006      C1007   1.403       .  A
C1007      C1008   1.401       .  A
C1007      H1011   1.082       .  S
C1008      C1067   1.469       .  S
C1008      C1009   1.394       .  A
C1009      H1012   1.081       .  S
C1013      C1051   1.488       .  S
C1013      C1014   1.403       .  A
C1013      C1018   1.404       .  A
C1014      C1015   1.408       .  A
C1014      H1019   1.081       .  S
C1015      C1179   1.491       .  S
C1015      C1466   1.408       .  A
C1016      C1465   1.408       .  A
C1016      C1017   1.404       .  A
C1016      H1020   1.081       .  S
C1017      C1035   1.495       .  S
C1017      C1468   1.410       .  A
C1018      C1467   1.410       .  A
C1018      H1021   1.084       .  S
C1022      C1115   1.487       .  S
C1022      C1023   1.399       .  A
C1023      H1028   1.083       .  S
C1024      C1163   1.492       .  S
C1024      C1025   1.406       .  A
C1025      C1026   1.409       .  A
C1025      H1029   1.078       .  S
C1026      C1096   1.499       .  S
C1026      C1027   1.407       .  A
C1027      H1030   1.081       .  S
C1031      C1032   1.404       .  A
C1031      C1036   1.417       .  A
C1031      H1038   1.083       .  S
C1032      C1033   1.417       .  A
C1033      C1034   1.402       .  A
C1033      C1040   1.509       .  S
C1034      C1035   1.400       .  A
C1034      H1039   1.083       .  S
C1035      C1036   1.425       .  A
C1036      C1037   1.518       .  S
C1037      F1041   1.385       .  S
C1037      F1042   1.382       .  S
C1037      F1043   1.383       .  S
C1040      F1044   1.383       .  S
C1040      F1045   1.379       .  S
C1040      F1046   1.385       .  S
C1047      C1048   1.407       .  A
C1047      C1052   1.409       .  A
C1047      H1054   1.079       .  S
C1048      C1049   1.430       .  A
C1049      C1050   1.412       .  A
C1049      C1056   1.521       .  S
C1050      C1051   1.400       .  A
C1050      H1055   1.083       .  S
C1051      C1052   1.413       .  A
C1052      C1053   1.516       .  S
C1053      F1057   1.385       .  S
C1053      F1058   1.383       .  S
C1053      F1059   1.379       .  S
C1056      F1060   1.377       .  S
C1056      F1061   1.376       .  S
C1056      F1062   1.385       .  S
C1063      C1064   1.418       .  A
C1063      C1068   1.409       .  A
C1063      H1070   1.081       .  S
C1064      C1065   1.414       .  A
C1065      C1066   1.395       .  A
C1065      C1072   1.493       .  S
C1066      C1067   1.394       .  A
C1066      H1071   1.082       .  S
C1067      C1068   1.407       .  A
C1068      C1069   1.517       .  S
C1069      F1073   1.384       .  S
C1069      F1074   1.383       .  S
C1069      F1075   1.382       .  S
C1072      F1076   1.375       .  S
C1072      F1077   1.384       .  S
C1072      F1078   1.386       .  S
C1079      C1080   1.399       .  A
C1079      C1084   1.396       .  A
C1079      H1086   1.083       .  S
C1080      C1081   1.420       .  A
C1081      C1082   1.402       .  A
C1081      C1088   1.524       .  S
C1082      C1083   1.405       .  A
C1082      H1087   1.082       .  S
C1083      C1084   1.419       .  A
C1084      C1085   1.520       .  S
C1085      F1089   1.385       .  S
C1085      F1090   1.383       .  S
C1085      F1091   1.381       .  S
C1088      F1092   1.383       .  S
C1088      F1093   1.380       .  S
C1088      F1094   1.385       .  S
C1095      C1096   1.412       .  A
C1095      C1100   1.407       .  A
C1095      H1102   1.080       .  S
C1096      C1097   1.424       .  A
C1097      C1098   1.394       .  A
C1097      C1104   1.508       .  S
C1098      C1099   1.390       .  A
C1098      H1103   1.086       .  S
C1099      C1100   1.409       .  A
C1100      C1101   1.513       .  S
C1101      F1105   1.385       .  S
C1101      F1106   1.377       .  S
C1101      F1107   1.384       .  S
C1104      F1108   1.380       .  S
C1104      F1109   1.377       .  S
C1104      F1110   1.385       .  S
C1111      C1112   1.398       .  A
C1111      C1116   1.392       .  A
C1111      H1118   1.082       .  S
C1112      C1113   1.421       .  A
C1113      C1114   1.411       .  A
C1113      C1120   1.519       .  S
C1114      C1115   1.408       .  A
C1114      H1119   1.082       .  S
C1115      C1116   1.414       .  A
C1116      C1117   1.515       .  S
C1117      F1121   1.385       .  S
C1117      F1122   1.381       .  S
C1117      F1123   1.379       .  S
C1120      F1124   1.383       .  S
C1120      F1125   1.374       .  S
C1120      F1126   1.385       .  S
C1127      C1128   1.409       .  A
C1127      C1132   1.405       .  A
C1127      H1134   1.082       .  S
C1128      C1129   1.428       .  A
C1129      C1130   1.412       .  A
C1129      C1136   1.520       .  S
C1130      C1131   1.400       .  A
C1130      H1135   1.082       .  S
C1131      C1132   1.411       .  A
C1132      C1133   1.517       .  S
C1133      F1137   1.382       .  S
C1133      F1138   1.383       .  S
C1133      F1139   1.377       .  S
C1136      F1140   1.377       .  S
C1136      F1141   1.372       .  S
C1136      F1142   1.385       .  S
C1143      C1144   1.396       .  A
C1143      C1148   1.406       .  A
C1143      H1150   1.083       .  S
C1144      C1145   1.419       .  A
C1145      C1146   1.417       .  A
C1145      C1152   1.519       .  S
C1146      C1147   1.410       .  A
C1146      H1151   1.079       .  S
C1147      C1148   1.420       .  A
C1148      C1149   1.493       .  S
C1149      F1153   1.385       .  S
C1149      F1154   1.377       .  S
C1149      F1155   1.381       .  S
C1152      F1156   1.382       .  S
C1152      F1157   1.383       .  S
C1152      F1158   1.383       .  S
C1159      C1160   1.401   1_655  A
C1159      C1164   1.408       .  A
C1159      H1166   1.083       .  S
C1161      C1162   1.403       .  A
C1161      C1168   1.523       .  S
C1162      H1167   1.082       .  S
C1163      C1164   1.425       .  A
C1164      C1165   1.522       .  S
C1165      F1169   1.385       .  S
C1165      F1170   1.383       .  S
C1165      F1171   1.381       .  S
C1168      F1172   1.384       .  S
C1168      F1173   1.381       .  S
C1168      F1174   1.385       .  S
C1175      C1176   1.406       .  A
C1175      C1180   1.404       .  A
C1175      H1182   1.083       .  S
C1176      C1627   1.420       .  A
C1177      C1626   1.420       .  A
C1177      C1178   1.408       .  A
C1177      C1184   1.519       .  S
C1178      C1629   1.407       .  A
C1178      H1183   1.084       .  S
C1179      C1628   1.407       .  A
C1179      C1180   1.419       .  A
C1180      C1181   1.519       .  S
C1181      F1185   1.385       .  S
C1181      F1186   1.381       .  S
C1181      F1187   1.384       .  S
C1184      F1188   1.383       .  S
C1184      F1189   1.382       .  S
C1184      F1190   1.385       .  S
C1191      C1642   1.405   1_545  A
C1191      C1196   1.409       .  A
C1191      H1198   1.082       .  S
C1192      C1641   1.405       .  A
C1192      C1193   1.424       .  A
C1193      C1194   1.411       .  A
C1193      C1200   1.519       .  S
C1194      C1195   1.404       .  A
C1194      H1199   1.083       .  S
C1195      C1646   1.419       .  A
C1196      C1645   1.419       .  A
C1196      C1197   1.516       .  S
C1197      F1201   1.385       .  S
C1197      F1202   1.379       .  S
C1197      F1653   1.384       .  S
C1200      F1654   1.382       .  S
C1200      F1205   1.383       .  S
C1200      F1206   1.385       .  S
F1203      C1647   1.384       .  S
F1204      C1650   1.382       .  S
C1207      C1212   1.400       .  A
C1207      H1214   1.083       .  S
C1208      C1209   1.420       .  A
C1209      C1210   1.401       .  A
C1209      C1216   1.518       .  S
C1210      C1211   1.400       .  A
C1210      H1215   1.085       .  S
C1212      C1213   1.521       .  S
C1213      F1217   1.385       .  S
C1213      F1218   1.381       .  S
C1213      F1219   1.384       .  S
C1216      F1220   1.383       .  S
C1216      F1221   1.381       .  S
C1216      F1222   1.385       .  S
C1223      C1224   1.395   1_655  A
C1223      C1228   1.400       .  A
C1223      H1230   1.083       .  S
C1225      C1226   1.414       .  A
C1225      C1232   1.515       .  S
C1226      H1231   1.082       .  S
C1227      C1228   1.423   1_455  A
C1228      C1229   1.520       .  S
C1229      F1233   1.385       .  S
C1229      F1234   1.381       .  S
C1229      F1235   1.381       .  S
C1232      F1236   1.383       .  S
C1232      F1237   1.383       .  S
C1232      F1238   1.383       .  S
C1239      C1240   1.407   1_655  A
C1239      C1244   1.404       .  A
C1239      H1246   1.083       .  S
C1241      C1242   1.402       .  A
C1241      C1248   1.517       .  S
C1242      H1247   1.083       .  S
C1243      C1244   1.410   1_455  A
C1244      C1245   1.518       .  S
C1245      F1249   1.385       .  S
C1245      F1250   1.383       .  S
C1245      F1251   1.383       .  S
C1248      F1252   1.382       .  S
C1248      F1253   1.383       .  S
C1248      F1254   1.385       .  S
C1255      C1260   1.398       .  A
C1255      H1262   1.083       .  S
C1256      C1257   1.409       .  A
C1257      C1258   1.405       .  A
C1257      C1264   1.513       .  S
C1258      C1259   1.403       .  A
C1258      H1263   1.082       .  S
C1260      C1261   1.520       .  S
C1261      F1265   1.385       .  S
C1261      F1266   1.383       .  S
C1261      F1267   1.382       .  S
C1264      F1268   1.382       .  S
C1264      F1269   1.382       .  S
C1264      F1270   1.384       .  S
C1271      C1272   1.411       .  A
C1271      C1276   1.398       .  A
C1271      H1278   1.082       .  S
C1273      C1274   1.404       .  A
C1273      C1280   1.519       .  S
C1274      H1279   1.083       .  S
C1275      C1276   1.407       .  A
C1276      C1277   1.520       .  S
C1277      F1281   1.384       .  S
C1277      F1282   1.383       .  S
C1277      F1283   1.382       .  S
C1280      F1284   1.382       .  S
C1280      F1285   1.383       .  S
C1280      F1286   1.385       .  S
C1287      C1738   1.399   1_545  A
C1287      C1292   1.398       .  A
C1287      H1294   1.082       .  S
C1288      C1737   1.399       .  A
C1288      C1289   1.429       .  A
C1289      C1290   1.423       .  A
C1289      C1296   1.518       .  S
C1290      C1291   1.405       .  A
C1290      H1295   1.082       .  S
C1291      C1379   1.498       .  S
C1291      C1742   1.418       .  A
C1292      C1741   1.418   1_545  A
C1292      C1293   1.505       .  S
C1293      F1297   1.385       .  S
C1293      F1298   1.377       .  S
C1293      F1749   1.379       .  S
C1296      F1750   1.380       .  S
C1296      F1301   1.383       .  S
C1296      F1302   1.383       .  S
F1299      C1743   1.379       .  S
F1300      C1746   1.380       .  S
C1303      C1754   1.404   1_545  A
C1303      C1308   1.414       .  A
C1303      H1310   1.082       .  S
C1304      C1753   1.404       .  A
C1304      C1305   1.417       .  A
C1305      C1306   1.407       .  A
C1305      C1312   1.521       .  S
C1306      C1307   1.410       .  A
C1306      H1311   1.083       .  S
C1307      C1758   1.429       .  A
C1308      C1757   1.429       .  A
C1308      C1309   1.521       .  S
C1309      F1313   1.385       .  S
C1309      F1314   1.383       .  S
C1309      F1315   1.383       .  S
C1312      F1316   1.383       .  S
C1312      F1317   1.382       .  S
C1312      F1318   1.385       .  S
C1319      C1320   1.403       .  A
C1319      C1324   1.409       .  A
C1319      H1326   1.083       .  S
C1320      C1771   1.421       .  A
C1321      C1770   1.421       .  A
C1321      C1322   1.417       .  A
C1321      C1328   1.518       .  S
C1322      C1773   1.410       .  A
C1322      H1327   1.082       .  S
C1323      C1360   1.512       .  S
C1323      C1772   1.410       .  A
C1323      C1324   1.429       .  A
C1324      C1325   1.522       .  S
C1325      F1329   1.385       .  S
C1325      F1780   1.384       .  S
C1325      F1331   1.383       .  S
C1328      F1332   1.383       .  S
C1328      F1783   1.381       .  S
C1328      F1334   1.385       .  S
F1330      C1775   1.384       .  S
F1333      C1778   1.381       .  S
C1335      C1786   1.412       .  A
C1335      C1340   1.409       .  A
C1335      H1342   1.083       .  S
C1336      C1785   1.412       .  A
C1336      C1337   1.426       .  A
C1337      C1338   1.413       .  A
C1337      C1344   1.518       .  S
C1338      C1339   1.407       .  A
C1338      H1343   1.083       .  S
C1339      C1790   1.419       .  A
C1340      C1789   1.419       .  A
C1340      C1341   1.518       .  S
C1341      F1795   1.385       .  S
C1341      F1796   1.382       .  S
C1341      F1347   1.383       .  S
C1344      F1348   1.384       .  S
C1344      F1799   1.378       .  S
C1344      F1800   1.385       .  S
F1345      C1791   1.385       .  S
F1346      C1791   1.382       .  S
F1349      C1794   1.378       .  S
F1350      C1794   1.385       .  S
O1351      C1359   1.278       .  A
O1351     Co1371   2.030       .  S
O1352      C1360   1.264       .  A
O1352     Co1372   2.031       .  S
O1353      C1361   1.264       .  A
O1353     Co1373   1.878       .  S
O1354      C1362   1.249       .  A
O1354     Co1374   1.943       .  S
O1355     Co1372   2.099       .  S
O1356     Co1371   2.017       .  S
O1357     Co1374   1.970       .  S
O1358     Co1373   1.984       .  S
C1359      C1786   1.510       .  S
C1361      C1722   1.487       .  S
O1363     Co1371   1.956       .  S
O1364     Co1372   1.889       .  S
O1365     Co1373   2.012       .  S
O1366     Co1374   2.046       .  S
O1367      C1379   1.269       .  A
O1367     Co1372   1.987       .  S
O1368      C1378   1.258   1_565  A
O1368     Co1371   1.978       .  S
O1369      C1376   1.277       .  A
O1369     Co1374   2.046       .  S
O1370      C1377   1.295   1_655  A
O1370     Co1373   2.089       .  S
Co1371     O1375   2.043       .  S
C1377      C1690   1.477       .  S
C1378      C1757   1.505       .  S
C1380      C1725   1.464       .  S
C1380      C1381   1.394       .  A
C1380      C1385   1.396       .  A
C1381      C1382   1.395       .  A
C1381      H1386   1.085       .  S
C1382      C1709   1.463       .  S
C1382      C1383   1.399       .  A
C1383      C1384   1.402       .  A
C1383      H1387   1.084       .  S
C1384      C1661   1.469       .  S
C1384      C1385   1.399       .  A
C1385      H1388   1.083       .  S
C1389      C1789   1.502       .  S
C1389      C1390   1.414   1_565  A
C1389      C1394   1.408       .  A
C1390      C1391   1.412       .  A
C1391      C1770   1.503       .  S
C1391      C1392   1.409       .  A
C1392      C1393   1.406       .  A
C1392      H1396   1.082       .  S
C1393      C1642   1.498   1_545  S
C1393      C1394   1.407   1_545  A
C1394      H1397   1.084       .  S
C1398      C1754   1.492       .  S
C1398      C1399   1.398   1_565  A
C1398      C1403   1.404       .  A
C1399      C1400   1.405       .  A
C1399      H1404   1.083       .  S
C1400      C1626   1.492       .  S
C1400      C1401   1.410   1_545  A
C1401      C1402   1.408       .  A
C1401      H1405   1.074   1_565  S
C1402      C1738   1.505       .  S
C1402      C1403   1.417       .  A
C1407      C1693   1.467       .  S
C1407      C1408   1.395       .  A
C1407      C1412   1.395   1_455  A
C1408      C1409   1.400       .  A
C1408      H1413   1.085       .  S
C1409      C1674   1.477       .  S
C1409      C1410   1.405       .  A
C1410      C1411   1.409       .  A
C1410      H1414   1.083       .  S
C1411      C1610   1.480       .  S
C1411      C1412   1.401   1_455  A
C1412      H1415   1.083       .  S
C1416      C1594   1.493       .  S
C1416      C1417   1.411       .  A
C1416      C1421   1.403   1_565  A
C1417      C1418   1.408   1_565  A
C1417      H1422   1.084       .  S
C1418      C1645   1.494       .  S
C1419      C1420   1.406       .  A
C1419      H1423   1.083       .  S
C1420      C1581   1.482       .  S
C1421      H1424   1.082       .  S
O1425      C1433   1.275       .  A
O1425     Co1445   2.065   1_554  S
O1426      C1434   1.277       .  A
O1426     Co1446   2.035   1_554  S
O1427      C1435   1.245       .  A
O1427     Co1447   1.934       .  S
O1428      C1436   1.253       .  A
O1428     Co1448   1.866       .  S
O1429      C1435   1.273       .  A
O1429     Co1446   2.030   1_554  S
O1430      C1436   1.308       .  A
O1430     Co1445   2.137   1_554  S
O1431      C1434   1.271       .  A
O1431     Co1448   1.974       .  S
O1432      C1433   1.255       .  A
O1432     Co1447   1.971       .  S
C1433      C1597   1.512       .  S
C1434      C1578   1.496       .  S
C1435      C1530   1.466       .  S
C1436      C1514   1.501       .  S
O1437      C1450   1.273       .  A
O1437     Co1445   1.885       .  S
O1438      C1451   1.250       .  A
O1438     Co1446   1.948       .  S
O1439      C1452   1.268       .  A
O1439     Co1447   2.011   1_556  S
O1440      C1453   1.254       .  A
O1440     Co1448   2.008   1_556  S
O1441      C1453   1.256       .  A
O1441     Co1446   1.999       .  S
O1442      C1452   1.274       .  A
O1442     Co1445   1.997       .  S
O1443      C1450   1.295       .  A
O1443     Co1448   2.085   1_556  S
O1444      C1451   1.280       .  A
O1444     Co1447   2.049   1_556  S
Co1445     O1449   2.022   1_556  S
Co1446     O1449   2.046   1_556  S
Co1447     O1449   2.042       .  S
Co1448     O1449   1.979       .  S
C1450      C1549   1.458       .  S
C1451      C1562   1.468       .  S
C1452      C1498   1.500       .  S
C1453      C1482   1.490       .  S
C1454      C1533   1.480       .  S
C1454      C1455   1.401       .  A
C1455      H1460   1.083       .  S
C1456      C1658   1.479       .  S
C1456      C1457   1.403       .  A
C1457      C1458   1.401       .  A
C1457      H1461   1.082       .  S
C1458      C1517   1.469       .  S
C1458      C1459   1.394       .  A
C1459      H1462   1.081       .  S
C1463      C1501   1.488       .  S
C1463      C1464   1.403       .  A
C1463      C1468   1.404   1_565  A
C1464      C1465   1.408   1_565  A
C1464      H1469   1.081       .  S
C1465      C1629   1.491       .  S
C1466      C1467   1.404       .  A
C1466      H1470   1.081       .  S
C1467      C1485   1.495       .  S
C1468      H1471   1.084       .  S
C1472      C1565   1.487       .  S
C1472      C1473   1.399       .  A
C1473      H1478   1.083       .  S
C1474      C1613   1.492       .  S
C1474      C1475   1.406       .  A
C1475      C1476   1.409       .  A
C1475      H1479   1.078       .  S
C1476      C1546   1.499       .  S
C1476      C1477   1.407       .  A
C1477      H1480   1.081       .  S
C1481      C1482   1.404       .  A
C1481      C1486   1.417       .  A
C1481      H1488   1.083       .  S
C1482      C1483   1.417       .  A
C1483      C1484   1.402       .  A
C1483      C1490   1.509       .  S
C1484      C1485   1.400       .  A
C1484      H1489   1.083       .  S
C1485      C1486   1.425       .  A
C1486      C1487   1.518       .  S
C1487      F1491   1.385       .  S
C1487      F1492   1.382       .  S
C1487      F1493   1.383       .  S
C1490      F1494   1.383       .  S
C1490      F1495   1.379       .  S
C1490      F1496   1.385       .  S
C1497      C1498   1.407       .  A
C1497      C1502   1.409       .  A
C1497      H1504   1.079       .  S
C1498      C1499   1.430       .  A
C1499      C1500   1.412       .  A
C1499      C1506   1.521       .  S
C1500      C1501   1.400       .  A
C1500      H1505   1.083       .  S
C1501      C1502   1.413       .  A
C1502      C1503   1.516       .  S
C1503      F1507   1.385       .  S
C1503      F1508   1.383       .  S
C1503      F1509   1.379       .  S
C1506      F1510   1.377       .  S
C1506      F1511   1.376       .  S
C1506      F1512   1.385       .  S
C1513      C1514   1.418       .  A
C1513      C1518   1.409       .  A
C1513      H1520   1.081       .  S
C1514      C1515   1.414       .  A
C1515      C1516   1.395       .  A
C1515      C1522   1.493       .  S
C1516      C1517   1.394       .  A
C1516      H1521   1.082       .  S
C1517      C1518   1.407       .  A
C1518      C1519   1.517       .  S
C1519      F1523   1.384       .  S
C1519      F1524   1.383       .  S
C1519      F1525   1.382       .  S
C1522      F1526   1.375       .  S
C1522      F1527   1.384       .  S
C1522      F1528   1.386       .  S
C1529      C1530   1.399       .  A
C1529      C1534   1.396       .  A
C1529      H1536   1.083       .  S
C1530      C1531   1.420       .  A
C1531      C1532   1.402       .  A
C1531      C1538   1.524       .  S
C1532      C1533   1.405       .  A
C1532      H1537   1.082       .  S
C1533      C1534   1.419       .  A
C1534      C1535   1.520       .  S
C1535      F1539   1.385       .  S
C1535      F1540   1.383       .  S
C1535      F1541   1.381       .  S
C1538      F1542   1.383       .  S
C1538      F1543   1.380       .  S
C1538      F1544   1.385       .  S
C1545      C1546   1.412       .  A
C1545      C1550   1.407       .  A
C1545      H1552   1.080       .  S
C1546      C1547   1.424       .  A
C1547      C1548   1.394       .  A
C1547      C1554   1.508       .  S
C1548      C1549   1.390       .  A
C1548      H1553   1.086       .  S
C1549      C1550   1.409       .  A
C1550      C1551   1.513       .  S
C1551      F1555   1.385       .  S
C1551      F1556   1.377       .  S
C1551      F1557   1.384       .  S
C1554      F1558   1.380       .  S
C1554      F1559   1.377       .  S
C1554      F1560   1.385       .  S
C1561      C1562   1.398       .  A
C1561      C1566   1.392       .  A
C1561      H1568   1.082       .  S
C1562      C1563   1.421       .  A
C1563      C1564   1.411       .  A
C1563      C1570   1.519       .  S
C1564      C1565   1.408       .  A
C1564      H1569   1.082       .  S
C1565      C1566   1.414       .  A
C1566      C1567   1.515       .  S
C1567      F1571   1.385       .  S
C1567      F1572   1.381       .  S
C1567      F1573   1.379       .  S
C1570      F1574   1.383       .  S
C1570      F1575   1.374       .  S
C1570      F1576   1.385       .  S
C1577      C1578   1.409       .  A
C1577      C1582   1.405       .  A
C1577      H1584   1.082       .  S
C1578      C1579   1.428       .  A
C1579      C1580   1.412       .  A
C1579      C1586   1.520       .  S
C1580      C1581   1.400       .  A
C1580      H1585   1.082       .  S
C1581      C1582   1.411       .  A
C1582      C1583   1.517       .  S
C1583      F1587   1.382       .  S
C1583      F1588   1.383       .  S
C1583      F1589   1.377       .  S
C1586      F1590   1.377       .  S
C1586      F1591   1.372       .  S
C1586      F1592   1.385       .  S
C1593      C1594   1.396       .  A
C1593      C1598   1.406       .  A
C1593      H1600   1.083       .  S
C1594      C1595   1.419       .  A
C1595      C1596   1.417       .  A
C1595      C1602   1.519       .  S
C1596      C1597   1.410       .  A
C1596      H1601   1.079       .  S
C1597      C1598   1.420       .  A
C1598      C1599   1.493       .  S
C1599      F1603   1.385       .  S
C1599      F1604   1.377       .  S
C1599      F1605   1.381       .  S
C1602      F1606   1.382       .  S
C1602      F1607   1.383       .  S
C1602      F1608   1.383       .  S
C1609      C1610   1.401   1_655  A
C1609      C1614   1.408       .  A
C1609      H1616   1.083       .  S
C1611      C1612   1.403       .  A
C1611      C1618   1.523       .  S
C1612      H1617   1.082       .  S
C1613      C1614   1.425       .  A
C1614      C1615   1.522       .  S
C1615      F1619   1.385       .  S
C1615      F1620   1.383       .  S
C1615      F1621   1.381       .  S
C1618      F1622   1.384       .  S
C1618      F1623   1.381       .  S
C1618      F1624   1.385       .  S
C1625      C1626   1.406   1_565  A
C1625      C1630   1.404       .  A
C1625      H1632   1.083       .  S
C1627      C1628   1.408       .  A
C1627      C1634   1.519       .  S
C1628      H1633   1.084       .  S
C1629      C1630   1.419   1_545  A
C1630      C1631   1.519       .  S
C1631      F1635   1.385       .  S
C1631      F1636   1.381       .  S
C1631      F1637   1.384       .  S
C1634      F1638   1.383       .  S
C1634      F1639   1.382       .  S
C1634      F1640   1.385       .  S
C1641      C1646   1.409       .  A
C1641      H1648   1.082       .  S
C1642      C1643   1.424       .  A
C1643      C1644   1.411       .  A
C1643      C1650   1.519       .  S
C1644      C1645   1.404   1_565  A
C1644      H1649   1.083       .  S
C1646      C1647   1.516       .  S
C1647      F1651   1.385       .  S
C1647      F1652   1.379       .  S
C1650      F1655   1.383       .  S
C1650      F1656   1.385       .  S
C1657      C1662   1.400       .  A
C1657      H1664   1.083       .  S
C1658      C1659   1.420       .  A
C1659      C1660   1.401       .  A
C1659      C1666   1.518       .  S
C1660      C1661   1.400       .  A
C1660      H1665   1.085       .  S
C1662      C1663   1.521       .  S
C1663      F1667   1.385       .  S
C1663      F1668   1.381       .  S
C1663      F1669   1.384       .  S
C1666      F1670   1.383       .  S
C1666      F1671   1.381       .  S
C1666      F1672   1.385       .  S
C1673      C1674   1.395   1_655  A
C1673      C1678   1.400       .  A
C1673      H1680   1.083       .  S
C1675      C1676   1.414       .  A
C1675      C1682   1.515       .  S
C1676      H1681   1.082       .  S
C1677      C1678   1.423   1_455  A
C1678      C1679   1.520       .  S
C1679      F1683   1.385       .  S
C1679      F1684   1.381       .  S
C1679      F1685   1.381       .  S
C1682      F1686   1.383       .  S
C1682      F1687   1.383       .  S
C1682      F1688   1.383       .  S
C1689      C1690   1.407   1_655  A
C1689      C1694   1.404       .  A
C1689      H1696   1.083       .  S
C1691      C1692   1.402       .  A
C1691      C1698   1.517       .  S
C1692      H1697   1.083       .  S
C1693      C1694   1.410   1_455  A
C1694      C1695   1.518       .  S
C1695      F1699   1.385       .  S
C1695      F1700   1.383       .  S
C1695      F1701   1.383       .  S
C1698      F1702   1.382       .  S
C1698      F1703   1.383       .  S
C1698      F1704   1.385       .  S
C1705      C1710   1.398       .  A
C1705      H1712   1.083       .  S
C1706      C1707   1.409       .  A
C1707      C1708   1.405       .  A
C1707      C1714   1.513       .  S
C1708      C1709   1.403       .  A
C1708      H1713   1.082       .  S
C1710      C1711   1.520       .  S
C1711      F1715   1.385       .  S
C1711      F1716   1.383       .  S
C1711      F1717   1.382       .  S
C1714      F1718   1.382       .  S
C1714      F1719   1.382       .  S
C1714      F1720   1.384       .  S
C1721      C1722   1.411       .  A
C1721      C1726   1.398       .  A
C1721      H1728   1.082       .  S
C1723      C1724   1.404       .  A
C1723      C1730   1.519       .  S
C1724      H1729   1.083       .  S
C1725      C1726   1.407       .  A
C1726      C1727   1.520       .  S
C1727      F1731   1.384       .  S
C1727      F1732   1.383       .  S
C1727      F1733   1.382       .  S
C1730      F1734   1.382       .  S
C1730      F1735   1.383       .  S
C1730      F1736   1.385       .  S
C1737      C1742   1.398       .  A
C1737      H1744   1.082       .  S
C1738      C1739   1.429       .  A
C1739      C1740   1.423       .  A
C1739      C1746   1.518       .  S
C1740      C1741   1.405       .  A
C1740      H1745   1.082       .  S
C1742      C1743   1.505       .  S
C1743      F1747   1.385       .  S
C1743      F1748   1.377       .  S
C1746      F1751   1.383       .  S
C1746      F1752   1.383       .  S
C1753      C1758   1.414       .  A
C1753      H1760   1.082       .  S
C1754      C1755   1.417       .  A
C1755      C1756   1.407       .  A
C1755      C1762   1.521       .  S
C1756      C1757   1.410   1_565  A
C1756      H1761   1.083       .  S
C1758      C1759   1.521       .  S
C1759      F1763   1.385       .  S
C1759      F1764   1.383       .  S
C1759      F1765   1.383       .  S
C1762      F1766   1.383       .  S
C1762      F1767   1.382       .  S
C1762      F1768   1.385       .  S
C1769      C1770   1.403   1_565  A
C1769      C1774   1.409       .  A
C1769      H1776   1.083       .  S
C1771      C1772   1.417       .  A
C1771      C1778   1.518       .  S
C1772      H1777   1.082       .  S
C1773      C1774   1.429   1_545  A
C1774      C1775   1.522       .  S
C1775      F1779   1.385       .  S
C1775      F1781   1.383       .  S
C1778      F1782   1.383       .  S
C1778      F1784   1.385       .  S
C1785      C1790   1.409       .  A
C1785      H1792   1.083       .  S
C1786      C1787   1.426   1_565  A
C1787      C1788   1.413       .  A
C1787      C1794   1.518       .  S
C1788      C1789   1.407   1_545  A
C1788      H1793   1.083       .  S
C1790      C1791   1.518       .  S
C1791      F1797   1.383       .  S
C1794      F1798   1.384       .  S
