geometry optimzed in LAMMPS
_audit_creation_date              2020-11-30 
_audit_creation_method            'lammps2cif' 
_symmetry_space_group_name_H-M    'P1' 
_symmetry_Int_Tables_number       1 
_symmetry_cell_setting            triclinic 
loop_ 
_symmetry_equiv_pos_as_xyz 
  x,y,z 
_cell_length_a                    33.57598909 
_cell_length_b                    33.30050999191394 
_cell_length_c                    32.494515062282275 
_cell_angle_alpha                 90.32184758476421 
_cell_angle_beta                  90.29258155047292 
_cell_angle_gamma                 90.00061429426052 
loop_ 
_atom_site_label 
_atom_site_type_symbol 
_atom_site_fract_x 
_atom_site_fract_y 
_atom_site_fract_z 
_atom_site_charge 
C1          C  0.32676059  0.35793255  0.17062986    -0.02300
C2          C  0.32902347  0.23035087  0.28047377    -0.02300
C3          C  0.23147287  0.23121056  0.15570008    -0.02300
C4          C  0.22703165  0.35089871  0.29140054    -0.02300
C5          C  0.32667922  0.23504842  0.65025971    -0.02300
C6          C  0.22614601  0.21638966  0.77809172    -0.02300
C7          C  0.22626558  0.35233818  0.66239544    -0.02300
C8          C  0.32788802  0.33399800  0.78735643    -0.02300
N9          N  0.44682809  0.49489450  0.01999569    -0.05900
N10         N  0.41821303  0.46993904  0.03047660    -0.58100
N11         N  0.47391918  0.58703266  0.04396464    -0.05600
N12         N  0.46364940  0.61263110  0.07310063    -0.60200
N13         N  0.44642049  0.58592505  0.01490465    -0.05200
N14         N  0.41721680  0.61104401  0.02351110    -0.58000
N15         N  0.47483115  0.49588733  0.04847805    -0.04900
N16         N  0.46575603  0.47136684  0.07887941    -0.60500
C17         C  0.43050345  0.45515434  0.06700168     0.96200
C18         C  0.42864969  0.62777695  0.05958298     0.96000
N19         N  0.59556849  0.58783595  0.01440633    -0.06100
N20         N  0.62358113  0.61494037  0.02105649    -0.58600
N21         N  0.56966542  0.49633406  0.04766307    -0.04200
N22         N  0.57858950  0.46948245  0.07613662    -0.59900
N23         N  0.59671225  0.49605284  0.01855072    -0.06100
N24         N  0.62467429  0.46941978  0.02663084    -0.58900
N25         N  0.56896087  0.58895093  0.04395676    -0.03900
N26         N  0.57857004  0.61695863  0.07138183    -0.60000
Mn27       Mn  0.52191150  0.54207965  0.04711124     1.18400
C28         C  0.61264065  0.63324602  0.05653608     0.98300
C29         C  0.61300082  0.45289694  0.06246146     0.99000
N30         N  0.44353049  0.57991080  0.91764533    -0.06200
N31         N  0.41430305  0.60462354  0.90785087    -0.62500
N32         N  0.47244274  0.48765229  0.89401538    -0.05000
N33         N  0.46328766  0.45906064  0.86725569    -0.63100
N34         N  0.44552872  0.48935343  0.92325493    -0.05700
N35         N  0.41752827  0.46229185  0.91696012    -0.62700
N36         N  0.47085114  0.57936138  0.88873557    -0.04600
N37         N  0.46099884  0.60429131  0.85886456    -0.63400
Mn38       Mn  0.44495848  0.53762435  0.96897427     1.10700
C39         C  0.42569701  0.61966072  0.87129822     0.99600
C40         C  0.42903015  0.44341824  0.88214917     0.99600
N41         N  0.59429904  0.49088221  0.92201751    -0.05700
N42         N  0.62171924  0.46320664  0.91641979    -0.61100
N43         N  0.56596039  0.58078571  0.88847132    -0.05000
N44         N  0.57428167  0.60672667  0.85907653    -0.57800
N45         N  0.59339364  0.58236184  0.91749854    -0.06300
N46         N  0.62075079  0.60918487  0.90854317    -0.60600
N47         N  0.56703781  0.48866767  0.89287768    -0.05300
N48         N  0.57567333  0.45933772  0.86667119    -0.57800
Mn49       Mn  0.59568784  0.53937837  0.96804168     1.20200
Mn50       Mn  0.51914358  0.53412006  0.88973163     1.10100
Cl51       Cl  0.52037890  0.53846067  0.96843857    -0.85800
C52         C  0.60983565  0.44348165  0.88203260     0.96600
C53         C  0.60847160  0.62440870  0.87222505     0.96400
C54         C  0.32889687  0.72228577  0.16925034    -0.02300
C55         C  0.20794423  0.83045578  0.16187269    -0.02300
C56         C  0.20790528  0.73259433  0.28306822    -0.02300
C57         C  0.33680546  0.82607783  0.28605682    -0.02300
N58         N  0.47233112  0.08206093  0.54488298    -0.05900
N59         N  0.46258075  0.11017785  0.57182845    -0.58100
N60         N  0.44882179  0.98810347  0.51633027    -0.05600
N61         N  0.42204920  0.96017878  0.52402262    -0.60200
N62         N  0.47525708  0.99020659  0.54631941    -0.05200
N63         N  0.46674836  0.96386458  0.57519576    -0.58000
N64         N  0.44520928  0.07963993  0.51563473    -0.04900
N65         N  0.41648104  0.10581858  0.52204542    -0.60500
C66         C  0.42772328  0.12481309  0.55698792     0.96200
C67         C  0.43402780  0.94486122  0.56040192     0.96000
N68         N  0.47670675  0.98775919  0.39076692    -0.06100
N69         N  0.46849365  0.96067410  0.36199621    -0.58600
N70         N  0.44690743  0.07903329  0.41938167    -0.04200
N71         N  0.41920192  0.10608596  0.41197026    -0.59900
N72         N  0.47475386  0.08026833  0.39109472    -0.06100
N73         N  0.46650307  0.10844099  0.36381800    -0.58900
N74         N  0.44904699  0.98743394  0.41930849    -0.03900
N75         N  0.42144886  0.96048032  0.41055504    -0.60000
Mn76       Mn  0.44670607  0.03337939  0.46767311     1.18400
C77         C  0.43417343  0.94373818  0.37509646     0.98300
C78         C  0.43182891  0.12446111  0.37743824     0.99000
N79         N  0.56930379  0.99319028  0.54833098    -0.06200
N80         N  0.57820671  0.96637936  0.57671347    -0.62500
N81         N  0.59514877  0.08510333  0.51940464    -0.05000
N82         N  0.62341534  0.11116116  0.52877079    -0.63100
N83         N  0.56723595  0.08548391  0.54771400    -0.05700
N84         N  0.57604072  0.11212029  0.57680992    -0.62700
N85         N  0.59684826  0.99359682  0.51975146    -0.04600
N86         N  0.62502247  0.96734170  0.52800674    -0.63400
Mn87       Mn  0.52096401  0.03790104  0.54807037     1.10700
C88         C  0.61293910  0.95031567  0.56339052     0.99600
C89         C  0.61087673  0.12838443  0.56416832     0.99600
N90         N  0.56933817  0.08245399  0.39276702    -0.05700
N91         N  0.57832908  0.10911781  0.36428222    -0.61100
N92         N  0.59823004  0.99156610  0.42333417    -0.05000
N93         N  0.62664881  0.96503959  0.41655269    -0.57800
N94         N  0.57150994  0.99036486  0.39359164    -0.06300
N95         N  0.58141017  0.96298567  0.36589163    -0.60600
N96         N  0.59634995  0.08295130  0.42224612    -0.05300
N97         N  0.62432226  0.10948582  0.41435601    -0.57800
Mn98       Mn  0.52309183  0.03520605  0.39075586     1.20200
Mn99       Mn  0.59734378  0.03836016  0.47118026     1.10100
Cl100      Cl  0.52203150  0.03624684  0.46940898    -0.85800
C101        C  0.61254910  0.12589915  0.37843845     0.96600
C102        C  0.61574222  0.94716453  0.38078293     0.96400
C103        C  0.72467479  0.34184285  0.79590320    -0.02300
C104        C  0.82056517  0.34573453  0.66445821    -0.02300
C105        C  0.72483434  0.22480582  0.65950935    -0.02300
C106        C  0.83178561  0.23295345  0.78672646    -0.02300
C107        C  0.33586930  0.74292350  0.78354203    -0.02300
C108        C  0.33292534  0.84333698  0.66139563    -0.02300
C109        C  0.21119410  0.74352678  0.65395366    -0.02300
C110        C  0.21389323  0.84136090  0.78151043    -0.02300
C111        C  0.72723215  0.84879611  0.28564423    -0.02300
C112        C  0.82553287  0.71771433  0.27147271    -0.02300
C113        C  0.72804748  0.73100461  0.14976336    -0.02300
C114        C  0.83249683  0.85080741  0.17176601    -0.02300
C115        C  0.71054220  0.72813257  0.77363417    -0.02300
C116        C  0.81393274  0.72481250  0.65862975    -0.02300
C117        C  0.71845562  0.85404997  0.66608902    -0.02300
C118        C  0.81679412  0.85115358  0.78692365    -0.02300
N119        N  0.07236549  0.08851817  0.05211287    -0.05900
N120        N  0.09817090  0.09888425  0.08115675    -0.58100
N121        N  0.98221377  0.11748078  0.02414057    -0.05600
N122        N  0.95654653  0.14645632  0.03273351    -0.60200
N123        N  0.98149962  0.08983481  0.05295558    -0.05200
N124        N  0.95501286  0.09917836  0.08135525    -0.58000
N125        N  0.07305751  0.11475113  0.02190673    -0.04900
N126        N  0.09969067  0.14302636  0.02951894    -0.60500
C127        C  0.11522304  0.13266940  0.06640762     0.96200
C128        C  0.93958094  0.13445277  0.06832402     0.96000
N129        N  0.97812902  0.08428292  0.89863516    -0.06100
N130        N  0.95120244  0.09263307  0.87015384    -0.58600
N131        N  0.07039602  0.11204354  0.92355526    -0.04200
N132        N  0.09595210  0.14006043  0.91226258    -0.59900
N133        N  0.06948392  0.08270813  0.89619932    -0.06100
N134        N  0.09490970  0.08992011  0.86620294    -0.58900
N135        N  0.97999226  0.11341966  0.92616205    -0.03900
N136        N  0.95479361  0.14231284  0.91668280    -0.60000
Mn137      Mn  0.02652262  0.11520261  0.97390270     1.18400
C138        C  0.93668397  0.12870281  0.88210254     0.98300
C139        C  0.11131944  0.12567413  0.87667756     0.99000
N140        N  0.97970419  0.99409198  0.05525309    -0.06200
N141        N  0.95402000  0.98619391  0.08482646    -0.62500
N142        N  0.06945198  0.96414723  0.02563754    -0.05000
N143        N  0.09484417  0.93525043  0.03418031    -0.63100
N144        N  0.07081858  0.99222660  0.05431598    -0.05700
N145        N  0.09721460  0.98257533  0.08309728    -0.62700
N146        N  0.97869016  0.96556793  0.02699930    -0.04600
N147        N  0.95238559  0.93782222  0.03679050    -0.63400
Mn148      Mn  0.02613691  0.04116675  0.05464470     1.10700
C149        C  0.93680567  0.95141396  0.07245383     0.99600
C150        C  0.11224483  0.94698017  0.06986294     0.99600
N151        N  0.06788826  0.98731997  0.89879628    -0.05700
N152        N  0.09380844  0.97745550  0.86996087    -0.61100
N153        N  0.97669350  0.96129594  0.92920346    -0.05000
N154        N  0.95043420  0.93269271  0.92099556    -0.57800
N155        N  0.97600802  0.98879870  0.90027601    -0.06300
N156        N  0.94875244  0.97974716  0.87216676    -0.60600
N157        N  0.06757383  0.96001950  0.92791184    -0.05300
N158        N  0.09283826  0.93079509  0.91918715    -0.57800
Mn159      Mn  0.02283867  0.03579064  0.89764537     1.20200
Mn160      Mn  0.02309407  0.96211234  0.97756274     1.10100
Cl161      Cl  0.02467439  0.03859786  0.97595328    -0.85800
C162        C  0.10927223  0.94219759  0.88314054     0.96600
C163        C  0.93284119  0.94485200  0.88563389     0.96400
C164        C  0.71541738  0.23378274  0.28523257    -0.02300
C165        C  0.81484577  0.22370172  0.15646392    -0.02300
C166        C  0.71079949  0.33623744  0.15266533    -0.02300
C167        C  0.81305821  0.35218494  0.28196974    -0.02300
N168        N  0.06442349  0.61038058  0.42714448    -0.05900
N169        N  0.08974690  0.63953909  0.41889423    -0.58100
N170        N  0.97509139  0.58084098  0.39580237    -0.05600
N171        N  0.94973121  0.58846601  0.36568488    -0.60200
N172        N  0.97296697  0.60876221  0.42457931    -0.05200
N173        N  0.94573404  0.63583423  0.41457373    -0.58000
N174        N  0.06626569  0.58200252  0.39890838    -0.04900
N175        N  0.09298717  0.59149624  0.37078229    -0.60500
C176        C  0.10769094  0.62736721  0.38383768     0.96200
C177        C  0.93129853  0.62255500  0.37787886     0.96000
N178        N  0.97423904  0.45758293  0.42450974    -0.06100
N179        N  0.94911800  0.42873954  0.41354851    -0.58600
N180        N  0.06638570  0.48573734  0.40050305    -0.04200
N181        N  0.09372032  0.47693574  0.37282304    -0.59900
N182        N  0.06461776  0.45738367  0.42858757    -0.06100
N183        N  0.09035176  0.42849675  0.42020511    -0.58900
N184        N  0.97519458  0.48564166  0.39611070    -0.03900
N185        N  0.95017841  0.47682859  0.36581504    -0.60000
Mn186      Mn  0.02095539  0.53355358  0.39711410     1.18400
C187        C  0.93408039  0.44131257  0.37704932     0.98300
C188        C  0.10850662  0.44138026  0.38567011     0.99000
N189        N  0.97278296  0.61086818  0.52340272    -0.06200
N190        N  0.94703483  0.63966760  0.53182693    -0.62500
N191        N  0.06496563  0.58355809  0.55323155    -0.05000
N192        N  0.09256432  0.59316335  0.58100218    -0.63100
N193        N  0.06402375  0.61059064  0.52380921    -0.05700
N194        N  0.09092976  0.63862990  0.53074704    -0.62700
N195        N  0.97375893  0.58449150  0.55339728    -0.04600
N196        N  0.94891772  0.59506217  0.58300289    -0.63400
Mn197      Mn  0.01820424  0.61080245  0.47475869     1.10700
C198        C  0.93221286  0.62934735  0.56891831     0.99600
C199        C  0.10881066  0.62758749  0.56630897     0.99600
N200        N  0.06188072  0.45806671  0.52691768    -0.05700
N201        N  0.08655367  0.42887658  0.53743257    -0.61100
N202        N  0.97135999  0.48921529  0.55237821    -0.05000
N203        N  0.94361862  0.48181151  0.58012114    -0.57800
N204        N  0.97123189  0.46104445  0.52367728    -0.06300
N205        N  0.94380675  0.43387531  0.53165391    -0.60600
N206        N  0.06280327  0.48705017  0.55467399    -0.05300
N207        N  0.08846630  0.47831771  0.58426182    -0.57800
Mn208      Mn  0.01785735  0.45767590  0.47603887     1.20200
Mn209      Mn  0.01841100  0.53599202  0.55443388     1.10100
Cl210      Cl  0.01882546  0.53446166  0.47558776    -0.85800
C211        C  0.10307493  0.44200988  0.57310856     0.96600
C212        C  0.92651013  0.44731913  0.56661512     0.96400
C213        C  0.88026637  0.35607973  0.32126422    -0.21100
C214        C  0.84741424  0.37588011  0.30302010    -0.09200
C215        C  0.84355961  0.41767982  0.31139740     0.29700
C216        C  0.87256431  0.43856980  0.33402493    -0.21100
C217        C  0.90497643  0.41853279  0.35154183    -0.09200
C218        C  0.90868274  0.37699930  0.34496113     0.29700
F219        F  0.94009563  0.35663160  0.36099203    -0.19700
H220        H  0.88414525  0.32411060  0.31775196     0.18100
H221        H  0.86861440  0.47043579  0.33956909     0.18100
F222        F  0.81063315  0.43857951  0.30017081    -0.19700
C223        C  0.78331336  0.36807415  0.17593315    -0.21100
C224        C  0.74105852  0.36413377  0.17973416    -0.09200
C225        C  0.72715811  0.38845413  0.21283570     0.29700
C226        C  0.75004273  0.39125217  0.24958231    -0.21100
C227        C  0.79064091  0.38019754  0.24912828    -0.09200
C228        C  0.80698194  0.38212954  0.20904257     0.29700
F229        F  0.84704151  0.38442818  0.20406527    -0.19700
H230        H  0.80034015  0.35992009  0.14986508     0.18100
H231        H  0.73705792  0.40508211  0.27625523     0.18100
F232        F  0.69213623  0.40858892  0.20990848    -0.19700
C233        C  0.79977218  0.28247996  0.10612777    -0.21100
C234        C  0.78894592  0.24371333  0.12084596    -0.09200
C235        C  0.74858654  0.23482208  0.11275037     0.29700
C236        C  0.72073984  0.26683668  0.11088679    -0.21100
C237        C  0.73279352  0.30681253  0.12003287    -0.09200
C238        C  0.77100797  0.31336015  0.10379249     0.29700
F239        F  0.78062836  0.34859248  0.08560685    -0.19700
H240        H  0.83022723  0.29100610  0.10162264     0.18100
H241        H  0.69111030  0.26084780  0.09986292     0.18100
F242        F  0.73748553  0.19751257  0.10055014    -0.19700
C243        C  0.86023724  0.27406573  0.20273403    -0.21100
C244        C  0.82357421  0.26021114  0.18578377    -0.09200
C245        C  0.78887201  0.27589913  0.20319613     0.29700
C246        C  0.78924146  0.29811156  0.23769764    -0.21100
C247        C  0.82382802  0.31586879  0.25317521    -0.09200
C248        C  0.86042789  0.30381914  0.23462067     0.29700
F249        F  0.89552735  0.32123888  0.24495694    -0.19700
H250        H  0.88830578  0.26202662  0.19237908     0.18100
H251        H  0.76022778  0.30646097  0.24899200     0.18100
F252        F  0.75282572  0.26362601  0.19107880    -0.19700
C253        C  0.67476759  0.32479520  0.22423111    -0.21100
C254        C  0.68589369  0.31031035  0.18512090    -0.09200
C255        C  0.67270042  0.27001407  0.18054417     0.29700
C256        C  0.67545849  0.24421817  0.21459721    -0.21100
C257        C  0.69002756  0.25939947  0.25257063    -0.09200
C258        C  0.67573949  0.29905296  0.25808439     0.29700
F259        F  0.65057200  0.30789546  0.28930868    -0.19700
H260        H  0.66016154  0.35327668  0.22773002     0.18100
H261        H  0.66286834  0.21472520  0.21188182     0.18100
F262        F  0.64757798  0.25936406  0.14959857    -0.19700
C263        C  0.72270703  0.30247134  0.32798472    -0.21100
C264        C  0.73719879  0.26379062  0.31764619    -0.09200
C265        C  0.77626365  0.25964319  0.33319622     0.29700
C266        C  0.80256787  0.29275094  0.33205084    -0.21100
C267        C  0.78869391  0.33058808  0.31735258    -0.09200
C268        C  0.74784303  0.33646394  0.32498778     0.29700
F269        F  0.73405670  0.37291552  0.33678267    -0.19700
H270        H  0.69316599  0.30599393  0.34008003     0.18100
H271        H  0.83382783  0.28685368  0.33662912     0.18100
F272        F  0.78784494  0.22576396  0.35287947    -0.19700
C273        C  0.78773872  0.20325474  0.26230803    -0.21100
C274        C  0.74546082  0.20601365  0.25848127    -0.09200
C275        C  0.73177810  0.18195713  0.22492504     0.29700
C276        C  0.75450641  0.18017255  0.18823699    -0.21100
C277        C  0.79432112  0.19390424  0.18878881    -0.09200
C278        C  0.81156541  0.19192695  0.22863408     0.29700
F279        F  0.85177689  0.19229203  0.23329305    -0.19700
H280        H  0.80443372  0.21025228  0.28918280     0.18100
H281        H  0.74189666  0.16607979  0.16138430     0.18100
F282        F  0.69758113  0.16046700  0.22768628    -0.19700
C283        C  0.91139297  0.19945788  0.09448154    -0.21100
C284        C  0.90917760  0.15753415  0.09125777    -0.09200
C285        C  0.87781703  0.13758340  0.11049678     0.29700
C286        C  0.84873540  0.15919189  0.13169769    -0.21100
C287        C  0.85061697  0.20155051  0.13635013    -0.09200
C288        C  0.88294535  0.22129496  0.11695077     0.29700
F289        F  0.88804953  0.26150521  0.11947049    -0.19700
H290        H  0.93567680  0.21539827  0.08003688     0.18100
H291        H  0.82402324  0.14204173  0.14351773     0.18100
F292        F  0.87413670  0.09708807  0.10717901    -0.19700
C293        C  0.84050830  0.91393253  0.82616820    -0.21100
C294        C  0.84978806  0.87466717  0.81137013    -0.09200
C295        C  0.88665426  0.85843002  0.82511329     0.29700
C296        C  0.91290979  0.88110882  0.84987228    -0.21100
C297        C  0.90381598  0.92053482  0.86171709    -0.09200
C298        C  0.86723466  0.93670190  0.84982808     0.29700
F299        F  0.85658020  0.97412194  0.86244146    -0.19700
H300        H  0.81190475  0.92760928  0.82011359     0.18100
H301        H  0.94100726  0.86793541  0.85925346     0.18100
F302        F  0.89848647  0.82095508  0.81530694    -0.19700
C303        C  0.78050111  0.89931661  0.68922939    -0.21100
C304        C  0.74080927  0.88706136  0.69414583    -0.09200
C305        C  0.72696943  0.89966681  0.73308326     0.29700
C306        C  0.75149005  0.89339014  0.76794796    -0.21100
C307        C  0.79193035  0.88362829  0.76174018    -0.09200
C308        C  0.80689241  0.89705564  0.72313420     0.29700
F309        F  0.84665224  0.89996960  0.71653850    -0.19700
H310        H  0.79096504  0.90957710  0.65974311     0.18100
H311        H  0.73949364  0.89782749  0.79826041     0.18100
F312        F  0.69162064  0.91917442  0.73666940    -0.19700
C313        C  0.75395900  0.75659825  0.61397191    -0.21100
C314        C  0.79391415  0.75618436  0.62757849    -0.09200
C315        C  0.81234092  0.79423413  0.62393717     0.29700
C316        C  0.78979385  0.82840460  0.63444919    -0.21100
C317        C  0.74744188  0.82622763  0.63812082    -0.09200
C318        C  0.73242640  0.79317728  0.61490117     0.29700
F319        F  0.69943186  0.79714558  0.59113451    -0.19700
H320        H  0.74065228  0.73065324  0.59978119     0.18100
H321        H  0.80739621  0.85444820  0.63908758     0.18100
F322        F  0.85265265  0.79726289  0.62285035    -0.19700
C323        C  0.86128013  0.77224081  0.70595329    -0.21100
C324        C  0.82419138  0.75401043  0.69519719    -0.09200
C325        C  0.79010117  0.77180728  0.71168134     0.29700
C326        C  0.79135574  0.80520158  0.73460288    -0.21100
C327        C  0.82660562  0.82121250  0.75068428    -0.09200
C328        C  0.86261636  0.80586811  0.73377642     0.29700
F329        F  0.89776347  0.82489459  0.74004878    -0.19700
H330        H  0.88841158  0.76274134  0.69103311     0.18100
H331        H  0.76259498  0.81649174  0.74379954     0.18100
F332        F  0.75352481  0.76131478  0.69932752    -0.19700
C333        C  0.84599320  0.69794866  0.59287433    -0.21100
C334        C  0.84859788  0.70342824  0.63612356    -0.09200
C335        C  0.88017393  0.68351951  0.65677850     0.29700
C336        C  0.90676970  0.65878273  0.63501205    -0.21100
C337        C  0.90365461  0.65434297  0.59215615    -0.09200
C338        C  0.87353785  0.67488701  0.57123678     0.29700
F339        F  0.86954473  0.67127967  0.52977397    -0.19700
H340        H  0.82185971  0.71058446  0.57503413     0.18100
H341        H  0.93042673  0.64370188  0.65163341     0.18100
F342        F  0.88626136  0.68803783  0.69773802    -0.19700
C343        C  0.67254119  0.75485706  0.70555486    -0.21100
C344        C  0.68452085  0.75909915  0.74720146    -0.09200
C345        C  0.67461325  0.79765676  0.76127696     0.29700
C346        C  0.68136268  0.83021962  0.73532743    -0.21100
C347        C  0.69353708  0.82364829  0.69411527    -0.09200
C348        C  0.67551566  0.78792218  0.67910420     0.29700
F349        F  0.65321823  0.78775188  0.64432432    -0.19700
H350        H  0.65586561  0.72923341  0.69497551     0.18100
H351        H  0.66853131  0.85800414  0.74505547     0.18100
F352        F  0.64863053  0.80232288  0.79270243    -0.19700
C353        C  0.71879245  0.68558489  0.70344265    -0.21100
C354        C  0.73168679  0.69572648  0.74388677    -0.09200
C355        C  0.76877205  0.67781276  0.75167157     0.29700
C356        C  0.79765498  0.67756201  0.72011910    -0.21100
C357        C  0.78726719  0.69121959  0.67984888    -0.09200
C358        C  0.74661471  0.68463643  0.67078749     0.29700
F359        F  0.73491684  0.67198043  0.63294574    -0.19700
H360        H  0.68833505  0.67713156  0.69750004     0.18100
H361        H  0.82798339  0.67196739  0.72902816     0.18100
F362        F  0.77699112  0.66121172  0.78883857    -0.19700
C363        C  0.78295378  0.74967038  0.80607791    -0.21100
C364        C  0.74117303  0.75532341  0.80147469    -0.09200
C365        C  0.72880650  0.78927649  0.82530394     0.29700
C366        C  0.75380569  0.82379969  0.82873269    -0.21100
C367        C  0.79445451  0.82121509  0.81797210    -0.09200
C368        C  0.80824321  0.78071945  0.81991030     0.29700
F369        F  0.84746071  0.77202605  0.82173568    -0.19700
H370        H  0.79865170  0.72316510  0.79846897     0.18100
H371        H  0.74225235  0.85086931  0.84253683     0.18100
F372        F  0.69422460  0.78842969  0.84651576    -0.19700
C373        C  0.84530841  0.90565285  0.11980824    -0.21100
C374        C  0.86161128  0.87651764  0.14653412    -0.09200
C375        C  0.90383423  0.87345083  0.14854479     0.29700
C376        C  0.92779944  0.89831547  0.12451727    -0.21100
C377        C  0.91089372  0.92697820  0.09850339    -0.09200
C378        C  0.86953364  0.93069243  0.09631432     0.29700
F379        F  0.85255715  0.95822346  0.07106948    -0.19700
H380        H  0.81343058  0.90883564  0.11663267     0.18100
H381        H  0.95989080  0.89514127  0.12619461     0.18100
F382        F  0.92288719  0.84706120  0.17334595    -0.19700
C383        C  0.79254843  0.76009067  0.11050278    -0.21100
C384        C  0.75172391  0.76209501  0.12116221    -0.09200
C385        C  0.73675690  0.80186643  0.11895181     0.29700
C386        C  0.76154547  0.83359333  0.13265791    -0.21100
C387        C  0.80324533  0.82761791  0.13924706    -0.09200
C388        C  0.81672607  0.79495726  0.11458914     0.29700
F389        F  0.85211695  0.79688612  0.09469978    -0.19700
H390        H  0.80525458  0.73327061  0.09741325     0.18100
H391        H  0.74623497  0.86108652  0.13724745     0.18100
F392        F  0.69692012  0.80833275  0.11614400    -0.19700
C393        C  0.76377668  0.67535501  0.24366170    -0.21100
C394        C  0.80326261  0.68806197  0.23926415    -0.09200
C395        C  0.81658609  0.67910836  0.19878949     0.29700
C396        C  0.79088715  0.68540214  0.16478885    -0.21100
C397        C  0.75085978  0.69551451  0.17209133    -0.09200
C398        C  0.73665738  0.68101474  0.21076803     0.29700
F399        F  0.69725653  0.67919460  0.21913943    -0.19700
H400        H  0.75367573  0.66367528  0.27274110     0.18100
H401        H  0.80165439  0.68069705  0.13397691     0.18100
F402        F  0.84981615  0.65674526  0.19310023    -0.19700
C403        C  0.86829784  0.78442477  0.26402520    -0.21100
C404        C  0.85499992  0.74771610  0.24738593    -0.09200
C405        C  0.86751695  0.74491528  0.20575164     0.29700
C406        C  0.86757160  0.77958421  0.18136473    -0.21100
C407        C  0.85487000  0.81665015  0.19807343    -0.09200
C408        C  0.86774569  0.81923599  0.23976761     0.29700
F409        F  0.89180482  0.84939619  0.25246801    -0.19700
H410        H  0.88324372  0.78539816  0.29333453     0.18100
H411        H  0.88156611  0.77776340  0.15187685     0.18100
F412        F  0.89087845  0.71437972  0.19272710    -0.19700
C413        C  0.86888726  0.66267771  0.36779359    -0.21100
C414        C  0.90329131  0.64521940  0.35142554    -0.09200
C415        C  0.91068639  0.64916641  0.30923433     0.29700
C416        C  0.88510846  0.67169009  0.28440133    -0.21100
C417        C  0.85111118  0.69106490  0.30040506    -0.09200
C418        C  0.84239009  0.68422242  0.34264335     0.29700
F419        F  0.80795948  0.69684767  0.36005416    -0.19700
H420        H  0.86194263  0.65872941  0.40004059     0.18100
H421        H  0.89275959  0.67444983  0.25249409     0.18100
F422        F  0.94365297  0.63255997  0.29210642    -0.19700
C423        C  0.75192178  0.80724553  0.22995164    -0.21100
C424        C  0.71699971  0.82235728  0.24713342    -0.09200
C425        C  0.68066010  0.80452723  0.23323065     0.29700
C426        C  0.68125768  0.77598968  0.20038838    -0.21100
C427        C  0.71803260  0.75939231  0.18695706    -0.09200
C428        C  0.75240489  0.77459336  0.20587535     0.29700
F429        F  0.78872019  0.76127292  0.19620223    -0.19700
H430        H  0.78087265  0.81672146  0.24072981     0.18100
H431        H  0.65323349  0.76778980  0.18656381     0.18100
F432        F  0.64568090  0.81082455  0.25276882    -0.19700
C433        C  0.79468220  0.88834067  0.27583900    -0.21100
C434        C  0.75397532  0.88335716  0.26647383    -0.09200
C435        C  0.74396057  0.89924354  0.22689768     0.29700
C436        C  0.77251926  0.89848584  0.19526028    -0.21100
C437        C  0.80989047  0.88103665  0.20263881    -0.09200
C438        C  0.82248346  0.89018512  0.24330573     0.29700
F439        F  0.85716798  0.91019745  0.24953822    -0.19700
H440        H  0.80423509  0.89421390  0.30702190     0.18100
H441        H  0.76533633  0.91157904  0.16591185     0.18100
F442        F  0.70646681  0.91001955  0.21677215    -0.19700
C443        C  0.78788650  0.81462562  0.32671402    -0.21100
C444        C  0.74768307  0.81534293  0.31409304    -0.09200
C445        C  0.73007145  0.77669827  0.31459771     0.29700
C446        C  0.75317262  0.74357582  0.30164214    -0.21100
C447        C  0.79556726  0.74628715  0.29822420    -0.09200
C448        C  0.80993818  0.77847973  0.32347975     0.29700
F449        F  0.84381638  0.77460629  0.34599922    -0.19700
H450        H  0.80127638  0.84024490  0.34164663     0.18100
H451        H  0.73596441  0.71746471  0.29586608     0.18100
F452        F  0.68986485  0.77283832  0.31601289    -0.19700
C453        C  0.16553907  0.93520157  0.83370276    -0.21100
C454        C  0.13691511  0.91707175  0.85862812    -0.09200
C455        C  0.13408037  0.87501039  0.85870983     0.29700
C456        C  0.15927438  0.85175241  0.83398838    -0.21100
C457        C  0.18808909  0.86948074  0.80835069    -0.09200
C458        C  0.19118817  0.91210816  0.80927715     0.29700
F459        F  0.21883786  0.93238880  0.78744237    -0.19700
H460        H  0.16836841  0.96761766  0.83342675     0.18100
H461        H  0.15592238  0.81942484  0.83457434     0.18100
F462        F  0.10578297  0.85633421  0.88133724    -0.19700
C463        C  0.16859093  0.80722173  0.67802244    -0.21100
C464        C  0.17879273  0.76614085  0.68110588    -0.09200
C465        C  0.17038164  0.75009499  0.72061940     0.29700
C466        C  0.17391233  0.77511881  0.75559370    -0.21100
C467        C  0.18412959  0.81608521  0.75158417    -0.09200
C468        C  0.16792895  0.83132944  0.71431234     0.29700
F469        F  0.14703840  0.86612067  0.71446911    -0.19700
H470        H  0.16006976  0.82011289  0.64894698     0.18100
H471        H  0.16473044  0.76286864  0.78440338     0.18100
F472        F  0.16772851  0.70990292  0.72634102    -0.19700
C473        C  0.18298797  0.67052291  0.64542984    -0.21100
C474        C  0.18862131  0.70994977  0.63049177    -0.09200
C475        C  0.16692654  0.72080603  0.59476995     0.29700
C476        C  0.14311098  0.69320310  0.57380039    -0.21100
C477        C  0.13784589  0.65407104  0.58835198    -0.09200
C478        C  0.15818397  0.64281908  0.62451231     0.29700
F479        F  0.15335824  0.60552809  0.64033660    -0.19700
H480        H  0.19555462  0.66129998  0.67441099     0.18100
H481        H  0.12724541  0.70341485  0.54670497     0.18100
F482        F  0.16696897  0.75907702  0.58069708    -0.19700
C483        C  0.30920280  0.77533010  0.62172080    -0.21100
C484        C  0.30486399  0.81677274  0.63134493    -0.09200
C485        C  0.26977588  0.83235174  0.61281050     0.29700
C486        C  0.23469820  0.80862418  0.61241241    -0.21100
C487        C  0.23762119  0.76724199  0.62161630    -0.09200
C488        C  0.27573583  0.75127204  0.61287603     0.29700
F489        F  0.28074589  0.71111797  0.60764838    -0.19700
H490        H  0.33712624  0.76072092  0.61913676     0.18100
H491        H  0.20669620  0.82232584  0.60440996     0.18100
F492        F  0.26976216  0.86898483  0.59478285    -0.19700
C493        C  0.28372763  0.87541565  0.76397512    -0.21100
C494        C  0.24423432  0.86584093  0.75281446    -0.09200
C495        C  0.23579900  0.88269357  0.71358017     0.29700
C496        C  0.26588675  0.88272117  0.68329973    -0.21100
C497        C  0.30417151  0.86722000  0.69287609    -0.09200
C498        C  0.31346122  0.87736002  0.73421110     0.29700
F499        F  0.34481029  0.90151650  0.74331114    -0.19700
H500        H  0.29047124  0.88878174  0.79323760     0.18100
H501        H  0.25982303  0.89776610  0.65490830     0.18100
F502        F  0.20377165  0.90651690  0.70745636    -0.19700
C503        C  0.28619353  0.76765063  0.73579162    -0.21100
C504        C  0.30439871  0.73266281  0.74934966    -0.09200
C505        C  0.29498225  0.69674779  0.72721280     0.29700
C506        C  0.26415864  0.69712780  0.69661116    -0.21100
C507        C  0.24382709  0.73346865  0.68724610    -0.09200
C508        C  0.25846864  0.76811641  0.70642894     0.29700
F509        F  0.24679695  0.80461425  0.69496554    -0.19700
H510        H  0.29472768  0.79660020  0.74791685     0.18100
H511        H  0.25914529  0.67024353  0.67868288     0.18100
F512        F  0.31755545  0.66326032  0.73097858    -0.19700
C513        C  0.31067434  0.80417819  0.83080291    -0.21100
C514        C  0.30840267  0.76364787  0.81775150    -0.09200
C515        C  0.26965717  0.74727071  0.82417549     0.29700
C516        C  0.23601952  0.77215813  0.81935760    -0.21100
C517        C  0.24036406  0.81379192  0.81241627    -0.09200
C518        C  0.27527430  0.82769219  0.83284871     0.29700
F519        F  0.27511143  0.86309223  0.85379777    -0.19700
H520        H  0.33809570  0.81639354  0.84258868     0.18100
H521        H  0.20781913  0.75883494  0.82586562     0.18100
F522        F  0.26362364  0.70719242  0.82655486    -0.19700
C523        C  0.37664077  0.75178935  0.71715365    -0.21100
C524        C  0.36631771  0.76791120  0.75635749    -0.09200
C525        C  0.37664851  0.80897421  0.76069096     0.29700
C526        C  0.38132680  0.83221799  0.72475598    -0.21100
C527        C  0.36485121  0.81778293  0.68760615    -0.09200
C528        C  0.37506023  0.77692202  0.68236304     0.29700
F529        F  0.39502893  0.76494095  0.64822653    -0.19700
H530        H  0.37962389  0.71969236  0.71263270     0.18100
H531        H  0.39412364  0.86184555  0.72638949     0.18100
F532        F  0.38718824  0.82524466  0.79732147    -0.19700
C533        C  0.85124626  0.16360562  0.81513578    -0.21100
C534        C  0.86120576  0.20439147  0.80835477    -0.09200
C535        C  0.89707533  0.21880191  0.82629658     0.29700
C536        C  0.92090005  0.19392189  0.85035814    -0.21100
C537        C  0.91067574  0.15378614  0.85648714    -0.09200
C538        C  0.87617085  0.13839420  0.83799591     0.29700
F539        F  0.86561576  0.09947008  0.84359306    -0.19700
H540        H  0.82370186  0.15092153  0.80364961     0.18100
H541        H  0.94794131  0.20605101  0.86389216     0.18100
F542        F  0.90992959  0.25685012  0.82087690    -0.19700
C543        C  0.79126616  0.18708556  0.68482434    -0.21100
C544        C  0.75031056  0.19544665  0.68836746    -0.09200
C545        C  0.73594050  0.18820063  0.72856989     0.29700
C546        C  0.76041030  0.19904989  0.76224702    -0.21100
C547        C  0.80190498  0.20713798  0.75694890    -0.09200
C548        C  0.81564019  0.18782643  0.72047067     0.29700
F549        F  0.85043227  0.16726809  0.72023630    -0.19700
H550        H  0.80349458  0.17608109  0.65645648     0.18100
H551        H  0.74501406  0.19949869  0.79062567     0.18100
F552        F  0.69653229  0.18186438  0.73496093    -0.19700
C553        C  0.81200861  0.28001069  0.61643225    -0.21100
C554        C  0.79733168  0.31716711  0.63179585    -0.09200
C555        C  0.75805407  0.32283315  0.61756189     0.29700
C556        C  0.73189061  0.28943166  0.61533839    -0.21100
C557        C  0.74649424  0.25021060  0.62479138    -0.09200
C558        C  0.78700038  0.24586741  0.61486201     0.29700
F559        F  0.80050499  0.21137745  0.59761655    -0.19700
H560        H  0.84160909  0.27751925  0.60418314     0.18100
H561        H  0.70043542  0.29520522  0.61216724     0.18100
F562        F  0.74676197  0.35868132  0.60153666    -0.19700
C563        C  0.86235118  0.27881899  0.68485112    -0.21100
C564        C  0.84922096  0.31863881  0.69292361    -0.09200
C565        C  0.86488251  0.33140845  0.73110516     0.29700
C566        C  0.86524165  0.30421059  0.76405927    -0.21100
C567        C  0.85583947  0.26297587  0.75704089    -0.09200
C568        C  0.86843608  0.25195264  0.71737225     0.29700
F569        F  0.89466699  0.22148318  0.71215024    -0.19700
H570        H  0.87542271  0.27039825  0.65608303     0.18100
H571        H  0.87784173  0.31507365  0.79225066     0.18100
F572        F  0.88808390  0.36458733  0.73372024    -0.19700
C573        C  0.87925892  0.35779974  0.61718316    -0.21100
C574        C  0.84711096  0.37439624  0.63927804    -0.09200
C575        C  0.84073322  0.41649510  0.63557367     0.29700
C576        C  0.86699115  0.44033404  0.61261533    -0.21100
C577        C  0.89868118  0.42286682  0.59106753    -0.09200
C578        C  0.90427562  0.38130319  0.59329841     0.29700
F579        F  0.93499027  0.36327283  0.57343387    -0.19700
H580        H  0.88579939  0.32622931  0.61846752     0.18100
H581        H  0.86185962  0.47238649  0.61068747     0.18100
F582        F  0.80874147  0.43504664  0.65244032    -0.19700
C583        C  0.67930548  0.28997398  0.75064904    -0.21100
C584        C  0.71560108  0.30831701  0.76318865    -0.09200
C585        C  0.74978013  0.29635299  0.74211828     0.29700
C586        C  0.74828483  0.27620831  0.70657857    -0.21100
C587        C  0.71373763  0.25764522  0.69204335    -0.09200
C588        C  0.67847537  0.26370982  0.71569333     0.29700
F589        F  0.64491237  0.24228538  0.70819445    -0.19700
H590        H  0.65256223  0.29354375  0.76854811     0.18100
H591        H  0.77701618  0.26993224  0.69335564     0.18100
F592        F  0.78619309  0.30804959  0.75388322    -0.19700
C593        C  0.79270717  0.32729639  0.83527035    -0.21100
C594        C  0.75257208  0.31773641  0.82663362    -0.09200
C595        C  0.74203489  0.27786022  0.83808510     0.29700
C596        C  0.77173377  0.24775813  0.83770629    -0.21100
C597        C  0.80976005  0.25725744  0.82285740    -0.09200
C598        C  0.82093661  0.29603791  0.83653022     0.29700
F599        F  0.85654952  0.30233456  0.85534486    -0.19700
H600        H  0.80210823  0.35749578  0.84202328     0.18100
H601        H  0.76483843  0.21741991  0.84684792     0.18100
F602        F  0.70330211  0.26701521  0.84206780    -0.19700
C603        C  0.78264745  0.38987339  0.76873878    -0.21100
C604        C  0.74285914  0.37631145  0.76747626    -0.09200
C605        C  0.72556995  0.38151515  0.72783902     0.29700
C606        C  0.74915415  0.37402741  0.69289151    -0.21100
C607        C  0.79133561  0.37039689  0.69571070    -0.09200
C608        C  0.80537218  0.39069252  0.73193950     0.29700
F609        F  0.83839679  0.41394802  0.73098167    -0.19700
H610        H  0.79509124  0.40227983  0.79667511     0.18100
H611        H  0.73230444  0.37099165  0.66543750     0.18100
F612        F  0.68555151  0.38178629  0.72266752    -0.19700
C613        C  0.67904928  0.14984564  0.35699229    -0.21100
C614        C  0.63759260  0.15369391  0.35489304    -0.09200
C615        C  0.62090888  0.18341410  0.32993858     0.29700
C616        C  0.64555357  0.20944773  0.30802394    -0.21100
C617        C  0.68764326  0.20582019  0.30956922    -0.09200
C618        C  0.70374928  0.17494621  0.33428280     0.29700
F619        F  0.74334538  0.16736591  0.33519932    -0.19700
H620        H  0.69247647  0.12639556  0.37542161     0.18100
H621        H  0.63097252  0.23230230  0.29000553     0.18100
F622        F  0.58078355  0.18796727  0.32753001    -0.19700
C623        C  0.67889425  0.91998397  0.57838382    -0.21100
C624        C  0.63825899  0.92314906  0.58767683    -0.09200
C625        C  0.62325660  0.90273491  0.62180297     0.29700
C626        C  0.64872758  0.88028327  0.64662732    -0.21100
C627        C  0.68990175  0.87714219  0.63789064    -0.09200
C628        C  0.70455683  0.89792456  0.60340431     0.29700
F629        F  0.74383839  0.89743497  0.59387959    -0.19700
H630        H  0.69128001  0.93581970  0.55238901     0.18100
H631        H  0.63568284  0.86626031  0.67322640     0.18100
F632        F  0.58404077  0.90475236  0.63159999    -0.19700
C633        C  0.63303995  0.91004140  0.31641635    -0.21100
C634        C  0.64130196  0.91863132  0.35781139    -0.09200
C635        C  0.67583543  0.90242424  0.37565779     0.29700
C636        C  0.70152133  0.87863048  0.35225932    -0.21100
C637        C  0.69371149  0.86946735  0.31038076    -0.09200
C638        C  0.65902208  0.88672404  0.29269652     0.29700
F639        F  0.65008589  0.88312393  0.25228291    -0.19700
H640        H  0.60710326  0.92296618  0.30160505     0.18100
H641        H  0.72867701  0.86863495  0.36704314     0.18100
F642        F  0.68572467  0.91052785  0.41542070    -0.19700
C643        C  0.38004545  0.85468628  0.60204536    -0.21100
C644        C  0.35739443  0.87177052  0.63429569    -0.09200
C645        C  0.36051683  0.91387486  0.64080076     0.29700
C646        C  0.38632350  0.93684900  0.61702638    -0.21100
C647        C  0.40853429  0.91927536  0.58552958    -0.09200
C648        C  0.40471662  0.87822013  0.57743842     0.29700
F649        F  0.42528664  0.86081857  0.54621727    -0.19700
H650        H  0.37860243  0.82278922  0.59576163     0.18100
H651        H  0.38858024  0.96884578  0.62288355     0.18100
F652        F  0.33952649  0.93372716  0.66994513    -0.19700
C653        C  0.62746051  0.19217651  0.60244295    -0.21100
C654        C  0.63740209  0.15290288  0.59060607    -0.09200
C655        C  0.67459081  0.13748089  0.60191768     0.29700
C656        C  0.70109820  0.16057630  0.62514740    -0.21100
C657        C  0.69162664  0.19999918  0.63832100    -0.09200
C658        C  0.65470303  0.21606296  0.62481600     0.29700
F659        F  0.64510900  0.25503303  0.63156189    -0.19700
H660        H  0.59932144  0.20499311  0.59271836     0.18100
H661        H  0.72992192  0.14749708  0.63164287     0.18100
F662        F  0.68558876  0.09990949  0.59010589    -0.19700
C663        C  0.41884146  0.87409686  0.35313959    -0.21100
C664        C  0.41026022  0.91494955  0.35109146    -0.09200
C665        C  0.37625636  0.92766009  0.32961011     0.29700
C666        C  0.35184219  0.89972437  0.30916769    -0.21100
C667        C  0.36171478  0.85857255  0.30827999    -0.09200
C668        C  0.39459063  0.84619319  0.33284931     0.29700
F669        F  0.40285720  0.80676143  0.33849745    -0.19700
H670        H  0.44378794  0.86364636  0.37145988     0.18100
H671        H  0.32427882  0.91065921  0.29667490     0.18100
F672        F  0.36612076  0.96711562  0.32930304    -0.19700
C673        C  0.30715428  0.76689999  0.33278133    -0.21100
C674        C  0.30780363  0.80735938  0.31981807    -0.09200
C675        C  0.27025855  0.82623232  0.32478951     0.29700
C676        C  0.23544562  0.80373566  0.31623646    -0.21100
C677        C  0.23674750  0.76102412  0.31154712    -0.09200
C678        C  0.27040039  0.74553724  0.33303786     0.29700
F679        F  0.26678920  0.71255548  0.35693082    -0.19700
H680        H  0.33349695  0.75299082  0.34525153     0.18100
H681        H  0.20949398  0.82149833  0.31406160     0.18100
F682        F  0.26756955  0.86689269  0.32547842    -0.19700
C683        C  0.18121684  0.66238456  0.30310992    -0.21100
C684        C  0.18378925  0.70422297  0.31092996    -0.09200
C685        C  0.16135225  0.71973692  0.34407644     0.29700
C686        C  0.13788318  0.69442069  0.36831589    -0.21100
C687        C  0.13522710  0.65306389  0.35983030    -0.09200
C688        C  0.15746194  0.63728565  0.32710210     0.29700
F689        F  0.15620836  0.59748097  0.31797627    -0.19700
H690        H  0.19671361  0.64841742  0.27777181     0.18100
H691        H  0.12085302  0.70753946  0.39321362     0.18100
F692        F  0.16170239  0.75956274  0.35304182    -0.19700
C693        C  0.16330743  0.76757275  0.18190698    -0.21100
C694        C  0.17397830  0.80831188  0.18713885    -0.09200
C695        C  0.16416521  0.82342166  0.22705425     0.29700
C696        C  0.16476388  0.79701220  0.26095646    -0.21100
C697        C  0.17605882  0.75671414  0.25519174    -0.09200
C698        C  0.16090764  0.74258256  0.21702210     0.29700
F699        F  0.14121875  0.70701855  0.21475415    -0.19700
H700        H  0.15521590  0.75580328  0.15209003     0.18100
H701        H  0.15557965  0.80773362  0.29075098     0.18100
F702        F  0.16228682  0.86340926  0.23465538    -0.19700
C703        C  0.25209700  0.80535150  0.21488942    -0.21100
C704        C  0.23927061  0.84068188  0.19624399    -0.09200
C705        C  0.26343174  0.87540543  0.20315208     0.29700
C706        C  0.29642751  0.87352473  0.23108244    -0.21100
C707        C  0.30634625  0.83677603  0.25077983    -0.09200
C708        C  0.28550332  0.80298702  0.23712381     0.29700
F709        F  0.29592279  0.76597379  0.24844404    -0.19700
H710        H  0.23882636  0.77674839  0.20744139     0.18100
H711        H  0.31522571  0.89959932  0.23387449     0.18100
F712        F  0.25870926  0.90912039  0.18052874    -0.19700
C713        C  0.17885728  0.90249906  0.15404641    -0.21100
C714        C  0.18724162  0.86409226  0.13747912    -0.09200
C715        C  0.16915998  0.85407600  0.09932706     0.29700
C716        C  0.14690505  0.88196125  0.07747644    -0.21100
C717        C  0.13946318  0.92032991  0.09340073    -0.09200
C718        C  0.15554481  0.93046604  0.13219206     0.29700
F719        F  0.14767539  0.96667376  0.14969940    -0.19700
H720        H  0.18874025  0.91067070  0.18459500     0.18100
H721        H  0.13397731  0.87251494  0.04838693     0.18100
F722        F  0.17094358  0.81635601  0.08351948    -0.19700
C723        C  0.37382795  0.75766332  0.26947728    -0.21100
C724        C  0.36697168  0.79860435  0.26144464    -0.09200
C725        C  0.37929975  0.81059450  0.22139547     0.29700
C726        C  0.37824984  0.78210562  0.18899247    -0.21100
C727        C  0.36299865  0.74359578  0.19660725    -0.09200
C728        C  0.37523161  0.73057519  0.23613838     0.29700
F729        F  0.39281937  0.69435217  0.24152704    -0.19700
H730        H  0.37866840  0.74658997  0.30009602     0.18100
H731        H  0.38801543  0.79017378  0.15855528     0.18100
F732        F  0.38455215  0.84995505  0.21233690    -0.19700
C733        C  0.30508275  0.68614310  0.23978564    -0.21100
C734        C  0.29955521  0.69610932  0.19770543    -0.09200
C735        C  0.26059859  0.68567101  0.18581072     0.29700
C736        C  0.22910517  0.69385894  0.21282500    -0.21100
C737        C  0.23697974  0.70675751  0.25381246    -0.09200
C738        C  0.27303975  0.68902481  0.26734794     0.29700
F739        F  0.27470321  0.66707541  0.30217894    -0.19700
H740        H  0.33132789  0.67133385  0.25075810     0.18100
H741        H  0.20078772  0.68218762  0.20373330     0.18100
F742        F  0.25447923  0.65909288  0.15468910    -0.19700
C743        C  0.30690055  0.79494556  0.13618631    -0.21100
C744        C  0.30077138  0.75318153  0.14365237    -0.09200
C745        C  0.26590324  0.73989363  0.12246715     0.29700
C746        C  0.23172484  0.76454575  0.12181920    -0.21100
C747        C  0.23566301  0.80567921  0.13117164    -0.09200
C748        C  0.27489345  0.81996661  0.12465963     0.29700
F749        F  0.28175377  0.85960262  0.11839200    -0.19700
H750        H  0.33476613  0.80985576  0.13729691     0.18100
H751        H  0.20397553  0.75222112  0.11087721     0.18100
F752        F  0.26559491  0.70499120  0.10088748    -0.19700
C753        C  0.61839380  0.39413820  0.10965955    -0.21100
C754        C  0.63690279  0.42295406  0.08516485    -0.09200
C755        C  0.67857059  0.42299198  0.08242397     0.29700
C756        C  0.70115706  0.39483805  0.10400917    -0.21100
C757        C  0.68324744  0.36511642  0.12852399    -0.09200
C758        C  0.64084010  0.36519944  0.13065661     0.29700
F759        F  0.62011031  0.33775449  0.15245267    -0.19700
H760        H  0.58621944  0.39353906  0.11199597     0.18100
H761        H  0.73311382  0.39748072  0.10263003     0.18100
F762        F  0.69777019  0.45135858  0.06016820    -0.19700
C763        C  0.67084077  0.66320202  0.86228216    -0.21100
C764        C  0.63265430  0.65283414  0.84811575    -0.09200
C765        C  0.61944442  0.66798287  0.81027152     0.29700
C766        C  0.64416238  0.69289415  0.78722338    -0.21100
C767        C  0.68258008  0.70398753  0.80138217    -0.09200
C768        C  0.69574472  0.68775303  0.83920353     0.29700
F769        F  0.73311273  0.69413128  0.85379424    -0.19700
H770        H  0.68216767  0.65127887  0.89099193     0.18100
H771        H  0.63305570  0.70272183  0.75773656     0.18100
F772        F  0.58300675  0.65817593  0.79496818    -0.19700
C773        C  0.67540618  0.67313241  0.06208591    -0.21100
C774        C  0.63865573  0.66239225  0.07905370    -0.09200
C775        C  0.62954349  0.67655493  0.11874022     0.29700
C776        C  0.65715815  0.69984591  0.14108889    -0.21100
C777        C  0.69417916  0.71126212  0.12416309    -0.09200
C778        C  0.70292303  0.69626679  0.08425837     0.29700
F779        F  0.73932702  0.70143549  0.06719238    -0.19700
H780        H  0.68391529  0.66197660  0.03201281     0.18100
H781        H  0.64980442  0.70629004  0.17254895     0.18100
F782        F  0.59483118  0.66619220  0.13705681    -0.19700
C783        C  0.41920965  0.68711480  0.84156945    -0.21100
C784        C  0.40264181  0.64944273  0.84815771    -0.09200
C785        C  0.36363886  0.64164008  0.83468556     0.29700
C786        C  0.34236664  0.67086711  0.81280203    -0.21100
C787        C  0.35924659  0.70878553  0.80449945    -0.09200
C788        C  0.39741837  0.71690195  0.82173396     0.29700
F789        F  0.41359069  0.75414877  0.82121548    -0.19700
H790        H  0.44858615  0.69413472  0.85357952     0.18100
H791        H  0.31252037  0.66350447  0.80319142     0.18100
F792        F  0.34614456  0.60576608  0.84257524    -0.19700
C793        C  0.67211959  0.40419610  0.87915292    -0.21100
C794        C  0.63499916  0.41269349  0.86165338    -0.09200
C795        C  0.62488840  0.39433498  0.82398992     0.29700
C796        C  0.65226817  0.36903998  0.80392417    -0.21100
C797        C  0.69048388  0.36129424  0.82078048    -0.09200
C798        C  0.69965921  0.38016420  0.85895624     0.29700
F799        F  0.73636728  0.37812562  0.87632311    -0.19700
H800        H  0.68116917  0.41814958  0.90790456     0.18100
H801        H  0.64360745  0.35767818  0.77420173     0.18100
F802        F  0.58939141  0.40212823  0.80553365    -0.19700
C803        C  0.39629696  0.63872996  0.12648379    -0.21100
C804        C  0.40172565  0.65081912  0.08584907    -0.09200
C805        C  0.38036591  0.68355307  0.07066239     0.29700
C806        C  0.35633299  0.70602684  0.09707265    -0.21100
C807        C  0.35094628  0.69475543  0.13874328    -0.09200
C808        C  0.37055214  0.65958362  0.15233100     0.29700
F809        F  0.36490794  0.64451512  0.19037426    -0.19700
H810        H  0.41149885  0.61238567  0.13809348     0.18100
H811        H  0.34298526  0.73280072  0.08447464     0.18100
F812        F  0.38408472  0.69486049  0.03078834    -0.19700
C813        C  0.34001811  0.38380341  0.84463122    -0.21100
C814        C  0.35670757  0.35913003  0.81390133    -0.09200
C815        C  0.39868581  0.36132919  0.80799704     0.29700
C816        C  0.42174303  0.38850631  0.83064679    -0.21100
C817        C  0.40444901  0.41338731  0.86030500    -0.09200
C818        C  0.36335971  0.41045258  0.86757403     0.29700
F819        F  0.34516140  0.43472952  0.89540185    -0.19700
H820        H  0.30828873  0.38351571  0.85002658     0.18100
H821        H  0.45343655  0.39015879  0.82479507     0.18100
F822        F  0.41846525  0.33834757  0.78033585    -0.19700
C823        C  0.25760826  0.37153805  0.76901329    -0.21100
C824        C  0.29921393  0.36544670  0.76347799    -0.09200
C825        C  0.31298664  0.38916467  0.73026198     0.29700
C826        C  0.28934015  0.39206262  0.69411493    -0.21100
C827        C  0.24902053  0.37990850  0.69536491    -0.09200
C828        C  0.23294719  0.38206003  0.73558319     0.29700
F829        F  0.19293389  0.38351674  0.74119742    -0.19700
H830        H  0.24303263  0.37059600  0.79789771     0.18100
H831        H  0.30186205  0.40543616  0.66715043     0.18100
F832        F  0.34810544  0.40920491  0.73289693    -0.19700
C833        C  0.15893851  0.35607458  0.62385476    -0.21100
C834        C  0.19088497  0.37606620  0.64369206    -0.09200
C835        C  0.19225411  0.41867559  0.63985969     0.29700
C836        C  0.16271891  0.43951045  0.61840330    -0.21100
C837        C  0.13221044  0.41906669  0.59787043    -0.09200
C838        C  0.13036234  0.37708809  0.60086834     0.29700
F839        F  0.10072625  0.35627806  0.58183118    -0.19700
H840        H  0.15597015  0.32392432  0.62526397     0.18100
H841        H  0.16493229  0.47188434  0.61605598     0.18100
F842        F  0.22310149  0.44093229  0.65447578    -0.19700
C843        C  0.29136797  0.23063743  0.82236917    -0.21100
C844        C  0.25064835  0.23754348  0.81449510    -0.09200
C845        C  0.23806973  0.27596892  0.82973615     0.29700
C846        C  0.26535244  0.30814278  0.83118098    -0.21100
C847        C  0.30439847  0.30293978  0.81678550    -0.09200
C848        C  0.31769076  0.26371210  0.82673262     0.29700
F849        F  0.35213465  0.25872487  0.84799168    -0.19700
H850        H  0.30171203  0.20098598  0.82976984     0.18100
H851        H  0.25649229  0.33575849  0.84582896     0.18100
F852        F  0.19945154  0.28454777  0.83720991    -0.19700
C853        C  0.25039094  0.27134107  0.73663608    -0.21100
C854        C  0.21551471  0.25338989  0.75062000    -0.09200
C855        C  0.17903226  0.26732799  0.73300485     0.29700
C856        C  0.17958074  0.29998721  0.70450239    -0.21100
C857        C  0.21652118  0.31526982  0.69012674    -0.09200
C858        C  0.25092362  0.29740416  0.70576824     0.29700
F859        F  0.28711000  0.30923597  0.69427636    -0.19700
H860        H  0.27941247  0.26145853  0.74685520     0.18100
H861        H  0.15166034  0.31246332  0.69406384     0.18100
F862        F  0.14385078  0.24910560  0.74083990    -0.19700
C863        C  0.15919354  0.21039562  0.81686258    -0.21100
C864        C  0.19219443  0.19154705  0.79805038    -0.09200
C865        C  0.19712227  0.14974292  0.80584363     0.29700
C866        C  0.17016730  0.12859092  0.83033988    -0.21100
C867        C  0.13873276  0.14830585  0.84984784    -0.09200
C868        C  0.13333770  0.18943444  0.84282878     0.29700
F869        F  0.10268172  0.20941990  0.86074015    -0.19700
H870        H  0.15314131  0.24172263  0.81232587     0.18100
H871        H  0.17494695  0.09683200  0.83553052     0.18100
F872        F  0.22887535  0.12885318  0.79162817    -0.19700
C873        C  0.36380641  0.24417132  0.72223251    -0.21100
C874        C  0.35113132  0.25990715  0.68412924    -0.09200
C875        C  0.36583470  0.29958546  0.68027774     0.29700
C876        C  0.36477846  0.32474249  0.71501615    -0.21100
C877        C  0.35119969  0.30908094  0.75295397    -0.09200
C878        C  0.36460262  0.26909557  0.75691440     0.29700
F879        F  0.39007785  0.25895859  0.78750371    -0.19700
H880        H  0.37844712  0.21549816  0.72414276     0.18100
H881        H  0.37830570  0.35377242  0.71270506     0.18100
F882        F  0.39007689  0.31004523  0.64890257    -0.19700
C883        C  0.31640979  0.30540174  0.61120914    -0.21100
C884        C  0.30306134  0.26602546  0.62049417    -0.09200
C885        C  0.26335251  0.26145641  0.60704269     0.29700
C886        C  0.23654478  0.29384163  0.61058743    -0.21100
C887        C  0.25002209  0.33175659  0.62561720    -0.09200
C888        C  0.29040199  0.33875697  0.61599511     0.29700
F889        F  0.30285121  0.37579387  0.60491075    -0.19700
H890        H  0.34581162  0.31014212  0.59926273     0.18100
H891        H  0.20541319  0.28750611  0.60590193     0.18100
F892        F  0.25437580  0.23259143  0.57893195    -0.19700
C893        C  0.31222642  0.18115375  0.70860519    -0.21100
C894        C  0.29790215  0.20429759  0.67512672    -0.09200
C895        C  0.25623084  0.19759538  0.66989090     0.29700
C896        C  0.23218425  0.18809042  0.70406738    -0.21100
C897        C  0.24875206  0.18950661  0.74433955    -0.09200
C898        C  0.28926894  0.17778543  0.74494724     0.29700
F899        F  0.30478746  0.15753103  0.77721361    -0.19700
H900        H  0.34169615  0.16828012  0.70783239     0.18100
H901        H  0.20017504  0.18731122  0.69983352     0.18100
F902        F  0.24023568  0.18920631  0.63277917    -0.19700
C903        C  0.33848153  0.18387012  0.59392467    -0.21100
C904        C  0.35527490  0.20942498  0.62399784    -0.09200
C905        C  0.39751108  0.20818901  0.62918023     0.29700
C906        C  0.42048015  0.18060796  0.60725331    -0.21100
C907        C  0.40303874  0.15487942  0.57833852    -0.09200
C908        C  0.36189043  0.15746804  0.57094945     0.29700
F909        F  0.34381422  0.13337276  0.54268411    -0.19700
H910        H  0.30672027  0.18340135  0.58883107     0.18100
H911        H  0.45232419  0.17962187  0.61277472     0.18100
F912        F  0.41779866  0.23285740  0.65507232    -0.19700
C913        C  0.12766776  0.37992941  0.34643138    -0.21100
C914        C  0.13770066  0.41778466  0.36228663    -0.09200
C915        C  0.17557261  0.43323462  0.35519056     0.29700
C916        C  0.20316222  0.41089349  0.33284406    -0.21100
C917        C  0.19324091  0.37350587  0.31414214    -0.09200
C918        C  0.15479274  0.35792930  0.32252384     0.29700
F919        F  0.14274725  0.32145747  0.30910051    -0.19700
H920        H  0.09840976  0.36750781  0.35219783     0.18100
H921        H  0.23280011  0.42334367  0.33045043     0.18100
F922        F  0.18639028  0.46947091  0.37105328    -0.19700
C923        C  0.25400128  0.27486071  0.21112072    -0.21100
C924        C  0.21986898  0.26030244  0.19181825    -0.09200
C925        C  0.18319660  0.27927917  0.20260948     0.29700
C926        C  0.18256671  0.30945772  0.23425333    -0.21100
C927        C  0.21833712  0.32068474  0.25494440    -0.09200
C928        C  0.25336223  0.30392587  0.23944736     0.29700
F929        F  0.28906821  0.31594297  0.25260958    -0.19700
H930        H  0.28329562  0.26525445  0.20179002     0.18100
H931        H  0.15507969  0.32519684  0.23998444     0.18100
F932        F  0.14938422  0.27217469  0.18083706    -0.19700
C933        C  0.16472062  0.19318159  0.15165202    -0.21100
C934        C  0.19827740  0.20928111  0.13158229    -0.09200
C935        C  0.20466682  0.19719744  0.09008506     0.29700
C936        C  0.17702843  0.17324805  0.06913750    -0.21100
C937        C  0.14384724  0.15791739  0.08937351    -0.09200
C938        C  0.13802138  0.16762292  0.13097608     0.29700
F939        F  0.10622629  0.15278034  0.15154306    -0.19700
H940        H  0.15929583  0.19950654  0.18374111     0.18100
H941        H  0.18248898  0.16521987  0.03729769     0.18100
F942        F  0.23860976  0.20650115  0.06979399    -0.19700
C943        C  0.25894499  0.25056840  0.31653734    -0.21100
C944        C  0.30042053  0.25623636  0.31070364    -0.09200
C945        C  0.31385530  0.29034316  0.33357537     0.29700
C946        C  0.28915170  0.32510428  0.33624935    -0.21100
C947        C  0.24863919  0.32248501  0.32416145    -0.09200
C948        C  0.23397336  0.28267486  0.32769787     0.29700
F949        F  0.19459467  0.27513011  0.33098695    -0.19700
H950        H  0.24433788  0.22258527  0.31384773     0.18100
H951        H  0.30108533  0.35255118  0.34897533     0.18100
F952        F  0.34924539  0.28957022  0.35387926    -0.19700
C953        C  0.32116954  0.18735505  0.21099276    -0.21100
C954        C  0.30582218  0.19966856  0.24960612    -0.09200
C955        C  0.26624203  0.18563137  0.25324256     0.29700
C956        C  0.24116216  0.18455323  0.21821047    -0.21100
C957        C  0.25595671  0.19754473  0.17946375    -0.09200
C958        C  0.29706165  0.18995039  0.17511811     0.29700
F959        F  0.31224961  0.17854277  0.13838152    -0.19700
H960        H  0.35116254  0.17629248  0.20866135     0.18100
H961        H  0.20982022  0.17942729  0.22299044     0.18100
F962        F  0.25503386  0.16406626  0.28650903    -0.19700
C963        C  0.39896723  0.20419993  0.30135078    -0.21100
C964        C  0.35722388  0.20502187  0.30742175    -0.09200
C965        C  0.34158852  0.18029809  0.33868790     0.29700
C966        C  0.36636083  0.15562010  0.36201899    -0.21100
C967        C  0.40735088  0.15380187  0.35454829    -0.09200
C968        C  0.42361651  0.17866500  0.32425802     0.29700
F969        F  0.46334214  0.17839618  0.31672357    -0.19700
H970        H  0.41311110  0.22254993  0.27840354     0.18100
H971        H  0.35301294  0.13688524  0.38534842     0.18100
F972        F  0.30220711  0.17987635  0.34736142    -0.19700
C973        C  0.36389266  0.28827919  0.18475320    -0.21100
C974        C  0.35138601  0.32649026  0.19855986    -0.09200
C975        C  0.36641569  0.33280395  0.23914479     0.29700
C976        C  0.36682320  0.30034593  0.26691349    -0.21100
C977        C  0.35377504  0.26205520  0.25335272    -0.09200
C978        C  0.36631168  0.25620862  0.21229363     0.29700
F979        F  0.39260330  0.22667288  0.20299949    -0.19700
H980        H  0.37804360  0.28445019  0.15551319     0.18100
H981        H  0.38054328  0.30472744  0.29646065     0.18100
F982        F  0.38948238  0.36486593  0.24846866    -0.19700
C983        C  0.29169304  0.39437690  0.27386049    -0.21100
C984        C  0.25143859  0.38386813  0.26711409    -0.09200
C985        C  0.23623762  0.39717662  0.22863465     0.29700
C986        C  0.26232772  0.39936382  0.19495503    -0.21100
C987        C  0.30257715  0.38835160  0.19993845    -0.09200
C988        C  0.31635025  0.40043193  0.23929136     0.29700
F989        F  0.34988840  0.42283247  0.24302780    -0.19700
H990        H  0.30349598  0.39924759  0.30432597     0.18100
H991        H  0.25155219  0.41171715  0.16649090     0.18100
F992        F  0.19642000  0.40026346  0.22200084    -0.19700
C993        C  0.25738325  0.33465307  0.13271415    -0.21100
C994        C  0.29924254  0.33170427  0.13953821    -0.09200
C995        C  0.31498370  0.29919334  0.11644557     0.29700
C996        C  0.29367324  0.26249391  0.11529576    -0.21100
C997        C  0.25301357  0.26238032  0.12616704    -0.09200
C998        C  0.23499204  0.30056425  0.12138041     0.29700
F999        F  0.19491289  0.30397236  0.11701469    -0.19700
H1000       H  0.24090698  0.36185484  0.13351315     0.18100
H1001       H  0.30791618  0.23615135  0.10316831     0.18100
F1002       F  0.35033465  0.30260106  0.09668233    -0.19700
C1003       C  0.39678442  0.38191773  0.14857084    -0.21100
C1004       C  0.35484920  0.38333158  0.14418532    -0.09200
C1005       C  0.33884925  0.40914618  0.11392532     0.29700
C1006       C  0.36373717  0.43145107  0.08854425    -0.21100
C1007       C  0.40519250  0.42992089  0.09332736    -0.09200
C1008       C  0.42156455  0.40531153  0.12388845     0.29700
F1009       F  0.46159355  0.40329354  0.12950927    -0.19700
H1010       H  0.41107088  0.36301263  0.17110726     0.18100
H1011       H  0.35035896  0.45068887  0.06552491     0.18100
F1012       F  0.29898251  0.41259960  0.10823185    -0.19700
loop_ 
_geom_bond_atom_site_label_1 
_geom_bond_atom_site_label_2 
_geom_bond_distance 
_geom_bond_site_symmetry_2 
_ccdc_geom_bond_type 
C1          C974   1.615       .  S
C1          C987   1.609       .  S
C1          C994   1.618       .  S
C1         C1004   1.536       .  S
C2          C944   1.622       .  S
C2          C954   1.624       .  S
C2          C964   1.541       .  S
C2          C977   1.612       .  S
C3          C924   1.568       .  S
C3          C934   1.541       .  S
C3          C957   1.591       .  S
C3          C997   1.594       .  S
C4          C917   1.550       .  S
C4          C927   1.576       .  S
C4          C947   1.599       .  S
C4          C984   1.586       .  S
C5          C874   1.597       .  S
C5          C884   1.622       .  S
C5          C894   1.629       .  S
C5          C904   1.542       .  S
C6          C844   1.598       .  S
C6          C854   1.566       .  S
C6          C864   1.555       .  S
C6          C897   1.606       .  S
C7          C827   1.598       .  S
C7          C834   1.550       .  S
C7          C857   1.568       .  S
C7          C887   1.592       .  S
C8          C814   1.538       .  S
C8          C824   1.621       .  S
C8          C847   1.620       .  S
C8          C877   1.597       .  S
N9           N10   1.318       .  A
N9           N15   1.316       .  A
N9          Mn38   2.192   1_554  S
N10          C17   1.350       .  A
N11          N13   1.318       .  A
N11          N12   1.318       .  A
N11         Mn27   2.202       .  S
N12          C18   1.351       .  A
N13          N14   1.319       .  A
N13         Mn38   2.188   1_554  S
N14          C18   1.349       .  A
N15          N16   1.322       .  A
N15         Mn27   2.206       .  S
N16          C17   1.354       .  A
C17        C1007   1.475       .  S
C18         C804   1.461       .  S
N19          N25   1.315       .  A
N19          N20   1.320       .  A
N19         Mn49   2.201   1_554  S
N20          C28   1.354       .  A
N21          N22   1.324       .  A
N21          N23   1.315       .  A
N21         Mn27   2.212       .  S
N22          C29   1.356       .  A
N23          N24   1.318       .  A
N23         Mn49   2.191   1_554  S
N24          C29   1.350       .  A
N25          N26   1.325       .  A
N25         Mn27   2.224       .  S
N26          C28   1.358       .  A
Mn27        Cl51   2.559   1_554  S
C28         C774   1.492       .  S
C29         C754   1.478       .  S
N30          N31   1.320       .  A
N30          N36   1.316       .  A
N30         Mn38   2.189       .  S
N31          C39   1.349       .  A
N32          N34   1.316       .  A
N32          N33   1.321       .  A
N32         Mn50   2.208       .  S
N33          C40   1.355       .  A
N34          N35   1.317       .  A
N34         Mn38   2.183       .  S
N35          C40   1.349       .  A
N36          N37   1.322       .  A
N36         Mn50   2.214       .  S
N37          C39   1.354       .  A
Mn38        Cl51   2.533       .  S
C39         C784   1.467       .  S
C40         C817   1.473       .  S
N41          N42   1.315       .  A
N41          N47   1.315       .  A
N41         Mn49   2.195       .  S
N42          C52   1.351       .  A
N43          N44   1.322       .  A
N43          N45   1.316       .  A
N43         Mn50   2.211       .  S
N44          C53   1.356       .  A
N45          N46   1.316       .  A
N45         Mn49   2.186       .  S
N46          C53   1.350       .  A
N47          N48   1.325       .  A
N47         Mn50   2.211       .  S
N48          C52   1.357       .  A
Mn49        Cl51   2.529       .  S
Mn50        Cl51   2.561       .  S
C52         C794   1.484       .  S
C53         C764   1.478       .  S
C54         C727   1.609       .  S
C54         C734   1.614       .  S
C54         C744   1.626       .  S
C54         C807   1.539       .  S
C55         C694   1.592       .  S
C55         C704   1.566       .  S
C55         C714   1.540       .  S
C55         C747   1.594       .  S
C56         C677   1.634       .  S
C56         C684   1.544       .  S
C56         C697   1.615       .  S
C56         C737   1.612       .  S
C57         C667   1.542       .  S
C57         C674   1.600       .  S
C57         C707   1.575       .  S
C57         C724   1.582       .  S
N58          N59   1.321       .  A
N58          N64   1.315       .  A
N58         Mn87   2.200       .  S
N59          C66   1.355       .  A
N60          N62   1.316       .  A
N60          N61   1.319       .  A
N60         Mn76   2.192   1_565  S
N61          C67   1.350       .  A
N62          N63   1.320       .  A
N62         Mn87   2.209   1_565  S
N63          C67   1.353       .  A
N64          N65   1.317       .  A
N64         Mn76   2.186       .  S
N65          C66   1.349       .  A
C66         C907   1.473       .  S
C67         C647   1.463       .  S
N68          N74   1.316       .  A
N68          N69   1.323       .  A
N68         Mn98   2.219   1_565  S
N69          C77   1.355       .  A
N70          N71   1.317       .  A
N70          N72   1.315       .  A
N70         Mn76   2.191       .  S
N71          C78   1.351       .  A
N72          N73   1.323       .  A
N72         Mn98   2.210       .  S
N73          C78   1.356       .  A
N74          N75   1.319       .  A
N74         Mn76   2.189   1_565  S
N75          C77   1.349       .  A
Mn76       Cl100   2.531       .  S
C77         C664   1.469       .  S
C78         C967   1.478       .  S
N79          N80   1.320       .  A
N79          N85   1.314       .  A
N79         Mn87   2.203   1_565  S
N80          C88   1.355       .  A
N81          N83   1.317       .  A
N81          N82   1.319       .  A
N81         Mn99   2.204       .  S
N82          C89   1.352       .  A
N83          N84   1.325       .  A
N83         Mn87   2.219       .  S
N84          C89   1.356       .  A
N85          N86   1.316       .  A
N85         Mn99   2.177   1_565  S
N86          C88   1.349       .  A
Mn87       Cl100   2.557       .  S
C88         C624   1.471       .  S
C89         C654   1.477       .  S
N90          N91   1.322       .  A
N90          N96   1.316       .  A
N90         Mn98   2.211       .  S
N91         C101   1.355       .  A
N92          N93   1.319       .  A
N92          N94   1.316       .  A
N92         Mn99   2.195   1_565  S
N93         C102   1.352       .  A
N94          N95   1.321       .  A
N94         Mn98   2.209   1_565  S
N95         C102   1.356       .  A
N96          N97   1.317       .  A
N96         Mn99   2.182       .  S
N97         C101   1.349       .  A
Mn98       Cl100   2.556       .  S
Mn99       Cl100   2.530       .  S
C101        C614   1.471       .  S
C102        C634   1.482       .  S
C103        C584   1.566       .  S
C103        C594   1.587       .  S
C103        C604   1.600       .  S
C103        C797   1.547       .  S
C104        C554   1.619       .  S
C104        C564   1.611       .  S
C104        C574   1.546       .  S
C104        C607   1.634       .  S
C105        C544   1.603       .  S
C105        C557   1.593       .  S
C105        C587   1.563       .  S
C105        C657   1.544       .  S
C106        C534   1.541       .  S
C106        C547   1.632       .  S
C106        C567   1.613       .  S
C106        C597   1.606       .  S
C107        C504   1.566       .  S
C107        C514   1.601       .  S
C107        C524   1.592       .  S
C107        C787   1.541       .  S
C108        C484   1.614       .  S
C108        C497   1.616       .  S
C108        C527   1.612       .  S
C108        C644   1.537       .  S
C109        C464   1.591       .  S
C109        C474   1.546       .  S
C109        C487   1.592       .  S
C109        C507   1.573       .  S
C110        C457   1.545       .  S
C110        C467   1.623       .  S
C110        C494   1.609       .  S
C110        C517   1.626       .  S
C111        C424   1.563       .  S
C111        C434   1.591       .  S
C111        C444   1.604       .  S
C111        C637   1.546       .  S
C112        C394   1.616       .  S
C112        C404   1.614       .  S
C112        C417   1.552       .  S
C112        C447   1.635       .  S
C113        C384   1.608       .  S
C113        C397   1.585       .  S
C113        C427   1.568       .  S
C113        C777   1.550       .  S
C114        C374   1.542       .  S
C114        C387   1.630       .  S
C114        C407   1.610       .  S
C114        C437   1.610       .  S
C115        C344   1.602       .  S
C115        C354   1.612       .  S
C115        C364   1.636       .  S
C115        C767   1.535       .  S
C116        C314   1.602       .  S
C116        C324   1.568       .  S
C116        C334   1.549       .  S
C116        C357   1.595       .  S
C117        C304   1.608       .  S
C117        C317   1.622       .  S
C117        C347   1.604       .  S
C117        C627   1.533       .  S
C118        C294   1.567       .  S
C118        C307   1.593       .  S
C118        C327   1.575       .  S
C118        C367   1.610       .  S
N119        N120   1.322       .  A
N119        N125   1.318       .  A
N119       Mn148   2.215       .  S
N120        C127   1.354       .  A
N121        N123   1.317       .  A
N121        N122   1.323       .  A
N121       Mn137   2.215   1_654  S
N122        C128   1.354       .  A
N123        N124   1.321       .  A
N123       Mn148   2.208   1_655  S
N124        C128   1.353       .  A
N125        N126   1.320       .  A
N125       Mn137   2.202   1_554  S
N126        C127   1.351       .  A
C127        C937   1.474       .  S
C128        C284   1.480       .  S
N129        N135   1.317       .  A
N129        N130   1.321       .  A
N129       Mn159   2.205   1_655  S
N130        C138   1.352       .  A
N131        N132   1.322       .  A
N131        N133   1.317       .  A
N131       Mn137   2.209       .  S
N132        C139   1.354       .  A
N133        N134   1.322       .  A
N133       Mn159   2.213       .  S
N134        C139   1.353       .  A
N135        N136   1.318       .  A
N135       Mn137   2.197   1_655  S
N136        C138   1.351       .  A
Mn137      Cl161   2.553       .  S
C138        C537   1.467       .  S
C139        C867   1.480       .  S
N140        N141   1.322       .  A
N140        N146   1.318       .  A
N140       Mn148   2.211   1_665  S
N141        C149   1.353       .  A
N142        N144   1.317       .  A
N142        N143   1.315       .  A
N142       Mn160   2.200   1_554  S
N143        C150   1.351       .  A
N144        N145   1.326       .  A
N144       Mn148   2.215   1_565  S
N145        C150   1.357       .  A
N146        N147   1.320       .  A
N146       Mn160   2.200   1_654  S
N147        C149   1.350       .  A
Mn148      Cl161   2.558   1_554  S
C149        C377   1.467       .  S
C150        C717   1.486       .  S
N151        N152   1.322       .  A
N151        N157   1.316       .  A
N151       Mn159   2.212   1_565  S
N152        C162   1.355       .  A
N153        N154   1.323       .  A
N153        N155   1.316       .  A
N153       Mn160   2.207   1_655  S
N154        C163   1.353       .  A
N155        N156   1.323       .  A
N155       Mn159   2.221   1_665  S
N156        C163   1.355       .  A
N157        N158   1.322       .  A
N157       Mn160   2.205       .  S
N158        C162   1.354       .  A
Mn159      Cl161   2.546       .  S
Mn160      Cl161   2.548   1_565  S
C162        C454   1.482       .  S
C163        C297   1.481       .  S
C164        C257   1.607       .  S
C164        C264   1.620       .  S
C164        C274   1.621       .  S
C164        C617   1.542       .  S
C165        C234   1.593       .  S
C165        C244   1.567       .  S
C165        C277   1.607       .  S
C165        C287   1.554       .  S
C166        C224   1.628       .  S
C166        C237   1.621       .  S
C166        C254   1.605       .  S
C166        C757   1.548       .  S
C167        C214   1.551       .  S
C167        C227   1.606       .  S
C167        C247   1.568       .  S
C167        C267   1.590       .  S
N168        N169   1.320       .  A
N168        N174   1.315       .  A
N168       Mn197   2.197       .  S
N169        C176   1.352       .  A
N170        N172   1.317       .  A
N170        N171   1.320       .  A
N170       Mn186   2.203   1_655  S
N171        C177   1.351       .  A
N172        N173   1.325       .  A
N172       Mn197   2.223   1_655  S
N173        C177   1.357       .  A
N174        N175   1.324       .  A
N174       Mn186   2.218       .  S
N175        C176   1.357       .  A
C176        C687   1.487       .  S
C177        C414   1.480       .  S
N178        N184   1.317       .  A
N178        N179   1.324       .  A
N178       Mn208   2.219   1_655  S
N179        C187   1.355       .  A
N180        N181   1.320       .  A
N180        N182   1.318       .  A
N180       Mn186   2.208       .  S
N181        C188   1.351       .  A
N182        N183   1.321       .  A
N182       Mn208   2.206       .  S
N183        C188   1.352       .  A
N184        N185   1.323       .  A
N184       Mn186   2.215   1_655  S
N185        C187   1.353       .  A
Mn186      Cl210   2.551       .  S
C187        C217   1.484       .  S
C188        C914   1.468       .  S
N189        N190   1.320       .  A
N189        N195   1.316       .  A
N189       Mn197   2.202   1_655  S
N190        C198   1.352       .  A
N191        N193   1.317       .  A
N191        N192   1.328       .  A
N191       Mn209   2.226       .  S
N192        C199   1.360       .  A
N193        N194   1.317       .  A
N193       Mn197   2.210       .  S
N194        C199   1.352       .  A
N195        N196   1.323       .  A
N195       Mn209   2.204   1_655  S
N196        C198   1.353       .  A
Mn197      Cl210   2.543       .  S
C198        C337   1.477       .  S
C199        C477   1.492       .  S
N200        N201   1.322       .  A
N200        N206   1.318       .  A
N200       Mn208   2.212       .  S
N201        C211   1.353       .  A
N202        N203   1.324       .  A
N202        N204   1.319       .  A
N202       Mn209   2.219   1_655  S
N203        C212   1.354       .  A
N204        N205   1.319       .  A
N204       Mn208   2.210   1_655  S
N205        C212   1.353       .  A
N206        N207   1.321       .  A
N206       Mn209   2.209       .  S
N207        C211   1.353       .  A
Mn208      Cl210   2.557       .  S
Mn209      Cl210   2.562       .  S
C211        C837   1.479       .  S
C212        C577   1.477       .  S
C213        C214   1.414       .  A
C213        C218   1.405       .  A
C213        H220   1.078       .  S
C214        C215   1.423       .  A
C215        C216   1.400       .  A
C215        F222   1.356       .  S
C216        C217   1.397       .  A
C216        H221   1.084       .  S
C217        C218   1.404       .  A
C218        F219   1.357       .  S
C223        C224   1.431       .  A
C223        C228   1.412       .  A
C223        H230   1.059       .  S
C224        C225   1.423       .  A
C225        C226   1.419       .  A
C225        F232   1.357       .  S
C226        C227   1.412       .  A
C226        H231   1.074       .  S
C227        C228   1.418       .  A
C228        F229   1.358       .  S
C233        C234   1.427       .  A
C233        C238   1.413       .  A
C233        H240   1.072       .  S
C234        C235   1.410       .  A
C235        C236   1.419       .  A
C235        F242   1.354       .  S
C236        C237   1.421       .  A
C236        H241   1.074       .  S
C237        C238   1.407       .  A
C238        F239   1.356       .  S
C243        C244   1.422       .  A
C243        C248   1.430       .  A
C243        H250   1.079       .  S
C244        C245   1.398       .  A
C245        C246   1.340       .  A
C245        F252   1.334       .  S
C246        C247   1.394       .  A
C246        H251   1.079       .  S
C247        C248   1.428       .  A
C248        F249   1.353       .  S
C253        C254   1.409       .  A
C253        C258   1.399       .  A
C253        H260   1.073       .  S
C254        C255   1.420       .  A
C255        C256   1.407       .  A
C255        F262   1.355       .  S
C256        C257   1.416       .  A
C256        H261   1.072       .  S
C257        C258   1.416       .  A
C258        F259   1.355       .  S
C263        C264   1.416       .  A
C263        C268   1.416       .  A
C263        H270   1.075       .  S
C264        C265   1.410       .  A
C265        C266   1.413       .  A
C265        F272   1.356       .  S
C266        C267   1.427       .  A
C266        H271   1.078       .  S
C267        C268   1.409       .  A
C268        F269   1.353       .  S
C273        C274   1.427       .  A
C273        C278   1.409       .  A
C273        H280   1.060       .  S
C274        C275   1.424       .  A
C275        C276   1.420       .  A
C275        F282   1.357       .  S
C276        C277   1.413       .  A
C276        H281   1.074       .  S
C277        C278   1.417       .  A
C278        F279   1.358       .  S
C283        C284   1.401       .  A
C283        C288   1.405       .  A
C283        H290   1.083       .  S
C284        C285   1.397       .  A
C285        C286   1.395       .  A
C285        F292   1.358       .  S
C286        C287   1.419       .  A
C286        H291   1.081       .  S
C287        C288   1.421       .  A
C288        F289   1.352       .  S
C293        C294   1.426       .  A
C293        C298   1.399       .  A
C293        H300   1.081       .  S
C294        C295   1.422       .  A
C295        C296   1.407       .  A
C295        F302   1.347       .  S
C296        C297   1.400       .  A
C296        H301   1.083       .  S
C297        C298   1.395       .  A
C298        F299   1.358       .  S
C303        C304   1.404       .  A
C303        C308   1.413       .  A
C303        H310   1.080       .  S
C304        C305   1.412       .  A
C305        C306   1.414       .  A
C305        F312   1.358       .  S
C306        C307   1.411       .  A
C306        H311   1.075       .  S
C307        C308   1.428       .  A
C308        F309   1.357       .  S
C313        C314   1.410       .  A
C313        C318   1.417       .  A
C313        H320   1.073       .  S
C314        C315   1.416       .  A
C315        C316   1.408       .  A
C315        F322   1.358       .  S
C316        C317   1.429       .  A
C316        H321   1.059       .  S
C317        C318   1.422       .  A
C318        F319   1.354       .  S
C323        C324   1.426       .  A
C323        C328   1.436       .  A
C323        H330   1.081       .  S
C324        C325   1.397       .  A
C325        C326   1.335       .  A
C325        F332   1.336       .  S
C326        C327   1.396       .  A
C326        H331   1.079       .  S
C327        C328   1.424       .  A
C328        F329   1.353       .  S
C333        C334   1.418       .  A
C333        C338   1.393       .  A
C333        H340   1.081       .  S
C334        C335   1.418       .  A
C335        C336   1.406       .  A
C335        F342   1.353       .  S
C336        C337   1.403       .  A
C336        H341   1.083       .  S
C337        C338   1.397       .  A
C338        F339   1.358       .  S
C343        C344   1.416       .  A
C343        C348   1.404       .  A
C343        H350   1.074       .  S
C344        C345   1.401       .  A
C345        C346   1.397       .  A
C345        F352   1.355       .  S
C346        C347   1.418       .  A
C346        H351   1.068       .  S
C347        C348   1.418       .  A
C348        F349   1.352       .  S
C353        C354   1.421       .  A
C353        C358   1.418       .  A
C353        H360   1.077       .  S
C354        C355   1.403       .  A
C355        C356   1.415       .  A
C355        F362   1.358       .  S
C356        C357   1.429       .  A
C356        H361   1.074       .  S
C357        C358   1.412       .  A
C358        F359   1.354       .  S
C363        C364   1.423       .  A
C363        C368   1.408       .  A
C363        H370   1.057       .  S
C364        C365   1.430       .  A
C365        C366   1.427       .  A
C365        F372   1.354       .  S
C366        C367   1.413       .  A
C366        H371   1.078       .  S
C367        C368   1.427       .  A
C368        F369   1.349       .  S
C373        C374   1.414       .  A
C373        C378   1.398       .  A
C373        H380   1.080       .  S
C374        C375   1.423       .  A
C375        C376   1.399       .  A
C375        F382   1.354       .  S
C376        C377   1.397       .  A
C376        H381   1.084       .  S
C377        C378   1.396       .  A
C378        F379   1.357       .  S
C383        C384   1.417       .  A
C383        C388   1.422       .  A
C383        H390   1.076       .  S
C384        C385   1.419       .  A
C385        C386   1.414       .  A
C385        F392   1.357       .  S
C386        C387   1.429       .  A
C386        H391   1.060       .  S
C387        C388   1.423       .  A
C388        F389   1.357       .  S
C393        C394   1.400       .  A
C393        C398   1.414       .  A
C393        H400   1.080       .  S
C394        C395   1.421       .  A
C395        C396   1.415       .  A
C395        F402   1.354       .  S
C396        C397   1.407       .  A
C396        H401   1.077       .  S
C397        C398   1.433       .  A
C398        F399   1.353       .  S
C403        C404   1.406       .  A
C403        C408   1.406       .  A
C403        H410   1.075       .  S
C404        C405   1.421       .  A
C405        C406   1.404       .  A
C405        F412   1.352       .  S
C406        C407   1.412       .  A
C406        H411   1.071       .  S
C407        C408   1.422       .  A
C408        F409   1.350       .  S
C413        C414   1.399       .  A
C413        C418   1.405       .  A
C413        H420   1.083       .  S
C414        C415   1.401       .  A
C415        C416   1.397       .  A
C415        F422   1.358       .  S
C416        C417   1.411       .  A
C416        H421   1.074       .  S
C417        C418   1.424       .  A
C418        F419   1.355       .  S
C423        C424   1.394       .  A
C423        C428   1.336       .  A
C423        H430   1.078       .  S
C424        C425   1.427       .  A
C425        C426   1.425       .  A
C425        F432   1.354       .  S
C426        C427   1.422       .  A
C426        H431   1.075       .  S
C427        C428   1.398       .  A
C428        F429   1.336       .  S
C433        C434   1.408       .  A
C433        C438   1.415       .  A
C433        H440   1.078       .  S
C434        C435   1.432       .  A
C435        C436   1.410       .  A
C435        F442   1.349       .  S
C436        C437   1.403       .  A
C436        H441   1.077       .  S
C437        C438   1.417       .  A
C438        F439   1.356       .  S
C443        C444   1.409       .  A
C443        C448   1.417       .  A
C443        H450   1.076       .  S
C444        C445   1.416       .  A
C445        C446   1.412       .  A
C445        F452   1.357       .  S
C446        C447   1.431       .  A
C446        H451   1.059       .  S
C447        C448   1.429       .  A
C448        F449   1.356       .  S
C453        C454   1.399       .  A
C453        C458   1.401       .  A
C453        H460   1.084       .  S
C454        C455   1.404       .  A
C455        C456   1.400       .  A
C455        F462   1.357       .  S
C456        C457   1.411       .  A
C456        H461   1.083       .  S
C457        C458   1.423       .  A
C458        F459   1.354       .  S
C463        C464   1.414       .  A
C463        C468   1.423       .  A
C463        H470   1.077       .  S
C464        C465   1.423       .  A
C465        C466   1.410       .  A
C465        F472   1.355       .  S
C466        C467   1.414       .  A
C466        H471   1.070       .  S
C467        C468   1.421       .  A
C468        F469   1.354       .  S
C473        C474   1.415       .  A
C473        C478   1.412       .  A
C473        H480   1.076       .  S
C474        C475   1.416       .  A
C475        C476   1.391       .  A
C475        F482   1.356       .  S
C476        C477   1.400       .  A
C476        H481   1.083       .  S
C477        C478   1.409       .  A
C478        F479   1.357       .  S
C483        C484   1.421       .  A
C483        C488   1.408       .  A
C483        H490   1.060       .  S
C484        C485   1.420       .  A
C485        C486   1.418       .  A
C485        F492   1.356       .  S
C486        C487   1.415       .  A
C486        H491   1.076       .  S
C487        C488   1.415       .  A
C488        F489   1.358       .  S
C493        C494   1.409       .  A
C493        C498   1.395       .  A
C493        H500   1.071       .  S
C494        C495   1.423       .  A
C495        C496   1.414       .  A
C495        F502   1.351       .  S
C496        C497   1.419       .  A
C496        H501   1.071       .  S
C497        C498   1.416       .  A
C498        F499   1.355       .  S
C503        C504   1.389       .  A
C503        C508   1.330       .  A
C503        H510   1.078       .  S
C504        C505   1.427       .  A
C505        C506   1.432       .  A
C505        F512   1.354       .  S
C506        C507   1.423       .  A
C506        H511   1.078       .  S
C507        C508   1.397       .  A
C508        F509   1.332       .  S
C513        C514   1.414       .  A
C513        C518   1.425       .  A
C513        H520   1.074       .  S
C514        C515   1.427       .  A
C515        C516   1.409       .  A
C515        F522   1.353       .  S
C516        C517   1.414       .  A
C516        H521   1.068       .  S
C517        C518   1.420       .  A
C518        F519   1.358       .  S
C523        C524   1.424       .  A
C523        C528   1.411       .  A
C523        H530   1.083       .  S
C524        C525   1.417       .  A
C525        C526   1.414       .  A
C525        F532   1.351       .  S
C526        C527   1.407       .  A
C526        H531   1.077       .  S
C527        C528   1.413       .  A
C528        F529   1.357       .  S
C533        C534   1.417       .  A
C533        C538   1.399       .  A
C533        H540   1.081       .  S
C534        C535   1.418       .  A
C535        C536   1.392       .  A
C535        F542   1.351       .  S
C536        C537   1.396       .  A
C536        H541   1.084       .  S
C537        C538   1.398       .  A
C538        F539   1.357       .  S
C543        C544   1.408       .  A
C543        C548   1.415       .  A
C543        H550   1.074       .  S
C544        C545   1.417       .  A
C545        C546   1.410       .  A
C545        F552   1.357       .  S
C546        C547   1.430       .  A
C546        H551   1.059       .  S
C547        C548   1.424       .  A
C548        F549   1.354       .  S
C553        C554   1.421       .  A
C553        C558   1.414       .  A
C553        H560   1.076       .  S
C554        C555   1.408       .  A
C555        C556   1.419       .  A
C555        F562   1.358       .  S
C556        C557   1.430       .  A
C556        H561   1.078       .  S
C557        C558   1.407       .  A
C558        F559   1.354       .  S
C563        C564   1.421       .  A
C563        C568   1.403       .  A
C563        H570   1.071       .  S
C564        C565   1.409       .  A
C565        C566   1.406       .  A
C565        F572   1.354       .  S
C566        C567   1.426       .  A
C566        H571   1.068       .  S
C567        C568   1.406       .  A
C568        F569   1.354       .  S
C573        C574   1.410       .  A
C573        C578   1.391       .  A
C573        H580   1.075       .  S
C574        C575   1.424       .  A
C575        C576   1.406       .  A
C575        F582   1.356       .  S
C576        C577   1.401       .  A
C576        H581   1.083       .  S
C577        C578   1.399       .  A
C578        F579   1.358       .  S
C583        C584   1.420       .  A
C583        C588   1.430       .  A
C583        H590   1.079       .  S
C584        C585   1.396       .  A
C585        C586   1.333       .  A
C585        F592   1.336       .  S
C586        C587   1.393       .  A
C586        H591   1.078       .  S
C587        C588   1.429       .  A
C588        F589   1.354       .  S
C593        C594   1.411       .  A
C593        C598   1.408       .  A
C593        H600   1.075       .  S
C594        C595   1.426       .  A
C595        C596   1.414       .  A
C595        F602   1.357       .  S
C596        C597   1.404       .  A
C596        H601   1.080       .  S
C597        C598   1.413       .  A
C598        F599   1.356       .  S
C603        C604   1.411       .  A
C603        C608   1.422       .  A
C603        H610   1.078       .  S
C604        C605   1.422       .  A
C605        C606   1.409       .  A
C605        F612   1.353       .  S
C606        C607   1.424       .  A
C606        H611   1.058       .  S
C607        C608   1.432       .  A
C608        F609   1.353       .  S
C613        C614   1.399       .  A
C613        C618   1.394       .  A
C613        H620   1.084       .  S
C614        C615   1.398       .  A
C615        C616   1.399       .  A
C615        F622   1.358       .  S
C616        C617   1.419       .  A
C616        H621   1.079       .  S
C617        C618   1.414       .  A
C618        F619   1.353       .  S
C623        C624   1.403       .  A
C623        C628   1.394       .  A
C623        H630   1.083       .  S
C624        C625   1.400       .  A
C625        C626   1.393       .  A
C625        F632   1.358       .  S
C626        C627   1.416       .  A
C626        H631   1.080       .  S
C627        C628   1.411       .  A
C628        F629   1.356       .  S
C633        C634   1.400       .  A
C633        C638   1.399       .  A
C633        H640   1.083       .  S
C634        C635   1.403       .  A
C635        C636   1.396       .  A
C635        F642   1.358       .  S
C636        C637   1.416       .  A
C636        H641   1.082       .  S
C637        C638   1.419       .  A
C638        F639   1.350       .  S
C643        C644   1.415       .  A
C643        C648   1.398       .  A
C643        H650   1.082       .  S
C644        C645   1.421       .  A
C645        C646   1.395       .  A
C645        F652   1.353       .  S
C646        C647   1.395       .  A
C646        H651   1.084       .  S
C647        C648   1.397       .  A
C648        F649   1.357       .  S
C653        C654   1.402       .  A
C653        C658   1.409       .  A
C653        H660   1.083       .  S
C654        C655   1.398       .  A
C655        C656   1.393       .  A
C655        F662   1.358       .  S
C656        C657   1.415       .  A
C656        H661   1.082       .  S
C657        C658   1.419       .  A
C658        F659   1.354       .  S
C663        C664   1.392       .  A
C663        C668   1.396       .  A
C663        H670   1.084       .  S
C664        C665   1.402       .  A
C665        C666   1.402       .  A
C665        F672   1.357       .  S
C666        C667   1.410       .  A
C666        H671   1.073       .  S
C667        C668   1.421       .  A
C668        F669   1.355       .  S
C673        C674   1.414       .  A
C673        C678   1.424       .  A
C673        H680   1.077       .  S
C674        C675   1.418       .  A
C675        C676   1.414       .  A
C675        F682   1.357       .  S
C676        C677   1.430       .  A
C676        H681   1.055       .  S
C677        C678   1.424       .  A
C678        F679   1.354       .  S
C683        C684   1.417       .  A
C683        C688   1.399       .  A
C683        H690   1.079       .  S
C684        C685   1.413       .  A
C685        C686   1.402       .  A
C685        F692   1.356       .  S
C686        C687   1.406       .  A
C686        H691   1.083       .  S
C687        C688   1.402       .  A
C688        F689   1.357       .  S
C693        C694   1.412       .  A
C693        C698   1.419       .  A
C693        H700   1.077       .  S
C694        C695   1.429       .  A
C695        C696   1.414       .  A
C695        F702   1.354       .  S
C696        C697   1.406       .  A
C696        H701   1.077       .  S
C697        C698   1.416       .  A
C698        F699   1.358       .  S
C703        C704   1.394       .  A
C703        C708   1.334       .  A
C703        H710   1.077       .  S
C704        C705   1.429       .  A
C705        C706   1.430       .  A
C705        F712   1.354       .  S
C706        C707   1.423       .  A
C706        H711   1.077       .  S
C707        C708   1.394       .  A
C708        F709   1.334       .  S
C713        C714   1.414       .  A
C713        C718   1.409       .  A
C713        H720   1.078       .  S
C714        C715   1.416       .  A
C715        C716   1.388       .  A
C715        F722   1.356       .  S
C716        C717   1.399       .  A
C716        H721   1.083       .  S
C717        C718   1.408       .  A
C718        F719   1.357       .  S
C723        C724   1.408       .  A
C723        C728   1.407       .  A
C723        H730   1.075       .  S
C724        C725   1.427       .  A
C725        C726   1.414       .  A
C725        F732   1.357       .  S
C726        C727   1.405       .  A
C726        H731   1.079       .  S
C727        C728   1.417       .  A
C728        F729   1.355       .  S
C733        C734   1.420       .  A
C733        C738   1.406       .  A
C733        H740   1.070       .  S
C734        C735   1.405       .  A
C735        C736   1.404       .  A
C735        F742   1.355       .  S
C736        C737   1.421       .  A
C736        H741   1.067       .  S
C737        C738   1.416       .  A
C738        F739   1.352       .  S
C743        C744   1.428       .  A
C743        C748   1.410       .  A
C743        H750   1.060       .  S
C744        C745   1.424       .  A
C745        C746   1.411       .  A
C745        F752   1.354       .  S
C746        C747   1.407       .  A
C746        H751   1.076       .  S
C747        C748   1.418       .  A
C748        F749   1.357       .  S
C753        C754   1.398       .  A
C753        C758   1.402       .  A
C753        H760   1.084       .  S
C754        C755   1.402       .  A
C755        C756   1.396       .  A
C755        F762   1.358       .  S
C756        C757   1.410       .  A
C756        H761   1.078       .  S
C757        C758   1.426       .  A
C758        F759   1.354       .  S
C763        C764   1.403       .  A
C763        C768   1.394       .  A
C763        H770   1.083       .  S
C764        C765   1.402       .  A
C765        C766   1.397       .  A
C765        F772   1.357       .  S
C766        C767   1.416       .  A
C766        H771   1.079       .  S
C767        C768   1.414       .  A
C768        F769   1.355       .  S
C773        C774   1.401       .  A
C773        C778   1.398       .  A
C773        H780   1.083       .  S
C774        C775   1.406       .  A
C775        C776   1.405       .  A
C775        F782   1.357       .  S
C776        C777   1.415       .  A
C776        H781   1.073       .  S
C777        C778   1.419       .  A
C778        F779   1.356       .  S
C783        C784   1.390       .  A
C783        C788   1.392       .  A
C783        H790   1.084       .  S
C784        C785   1.402       .  A
C785        C786   1.402       .  A
C785        F792   1.358       .  S
C786        C787   1.412       .  A
C786        H791   1.076       .  S
C787        C788   1.421       .  A
C788        F789   1.354       .  S
C793        C794   1.397       .  A
C793        C798   1.388       .  A
C793        H800   1.083       .  S
C794        C795   1.405       .  A
C795        C796   1.407       .  A
C795        F802   1.357       .  S
C796        C797   1.417       .  A
C796        H801   1.074       .  S
C797        C798   1.420       .  A
C798        F799   1.355       .  S
C803        C804   1.395       .  A
C803        C808   1.391       .  A
C803        H810   1.084       .  S
C804        C805   1.396       .  A
C805        C806   1.396       .  A
C805        F812   1.358       .  S
C806        C807   1.420       .  A
C806        H811   1.080       .  S
C807        C808   1.415       .  A
C808        F809   1.351       .  S
C813        C814   1.408       .  A
C813        C818   1.394       .  A
C813        H820   1.081       .  S
C814        C815   1.425       .  A
C815        C816   1.395       .  A
C815        F822   1.354       .  S
C816        C817   1.396       .  A
C816        H821   1.083       .  S
C817        C818   1.404       .  A
C818        F819   1.357       .  S
C823        C824   1.424       .  A
C823        C828   1.408       .  A
C823        H830   1.061       .  S
C824        C825   1.420       .  A
C825        C826   1.418       .  A
C825        F832   1.357       .  S
C826        C827   1.414       .  A
C826        H831   1.073       .  S
C827        C828   1.418       .  A
C828        F829   1.358       .  S
C833        C834   1.413       .  A
C833        C838   1.402       .  A
C833        H840   1.076       .  S
C834        C835   1.426       .  A
C835        C836   1.396       .  A
C835        F842   1.356       .  S
C836        C837   1.395       .  A
C836        H841   1.084       .  S
C837        C838   1.403       .  A
C838        F839   1.357       .  S
C843        C844   1.409       .  A
C843        C848   1.418       .  A
C843        H850   1.075       .  S
C844        C845   1.434       .  A
C845        C846   1.410       .  A
C845        F852   1.351       .  S
C846        C847   1.405       .  A
C846        H851   1.076       .  S
C847        C848   1.419       .  A
C848        F849   1.355       .  S
C853        C854   1.394       .  A
C853        C858   1.330       .  A
C853        H860   1.080       .  S
C854        C855   1.428       .  A
C855        C856   1.433       .  A
C855        F862   1.354       .  S
C856        C857   1.423       .  A
C856        H861   1.079       .  S
C857        C858   1.394       .  A
C858        F859   1.333       .  S
C863        C864   1.414       .  A
C863        C868   1.402       .  A
C863        H870   1.074       .  S
C864        C865   1.426       .  A
C865        C866   1.401       .  A
C865        F872   1.355       .  S
C866        C867   1.396       .  A
C866        H871   1.084       .  S
C867        C868   1.401       .  A
C868        F869   1.358       .  S
C873        C874   1.411       .  A
C873        C878   1.396       .  A
C873        H880   1.076       .  S
C874        C875   1.417       .  A
C875        C876   1.403       .  A
C875        F882   1.355       .  S
C876        C877   1.419       .  A
C876        H881   1.071       .  S
C877        C878   1.412       .  A
C878        F879   1.352       .  S
C883        C884   1.420       .  A
C883        C888   1.421       .  A
C883        H890   1.075       .  S
C884        C885   1.409       .  A
C885        C886   1.409       .  A
C885        F892   1.355       .  S
C886        C887   1.424       .  A
C886        H891   1.076       .  S
C887        C888   1.413       .  A
C888        F889   1.354       .  S
C893        C894   1.419       .  A
C893        C898   1.418       .  A
C893        H900   1.079       .  S
C894        C895   1.426       .  A
C895        C896   1.414       .  A
C895        F902   1.345       .  S
C896        C897   1.420       .  A
C896        H901   1.083       .  S
C897        C898   1.415       .  A
C898        F899   1.352       .  S
C903        C904   1.408       .  A
C903        C908   1.395       .  A
C903        H910   1.078       .  S
C904        C905   1.428       .  A
C905        C906   1.394       .  A
C905        F912   1.354       .  S
C906        C907   1.395       .  A
C906        H911   1.084       .  S
C907        C908   1.404       .  A
C908        F909   1.357       .  S
C913        C914   1.400       .  A
C913        C918   1.404       .  A
C913        H920   1.084       .  S
C914        C915   1.393       .  A
C915        C916   1.393       .  A
C915        F922   1.358       .  S
C916        C917   1.421       .  A
C916        H921   1.081       .  S
C917        C918   1.419       .  A
C918        F919   1.349       .  S
C923        C924   1.390       .  A
C923        C928   1.332       .  A
C923        H930   1.079       .  S
C924        C925   1.428       .  A
C925        C926   1.434       .  A
C925        F932   1.355       .  S
C926        C927   1.422       .  A
C926        H931   1.078       .  S
C927        C928   1.397       .  A
C928        F929   1.332       .  S
C933        C934   1.412       .  A
C933        C938   1.402       .  A
C933        H940   1.079       .  S
C934        C935   1.422       .  A
C935        C936   1.396       .  A
C935        F942   1.356       .  S
C936        C937   1.395       .  A
C936        H941   1.084       .  S
C937        C938   1.403       .  A
C938        F939   1.357       .  S
C943        C944   1.419       .  A
C943        C948   1.406       .  A
C943        H950   1.056       .  S
C944        C945   1.426       .  A
C945        C946   1.427       .  A
C945        F952   1.357       .  S
C946        C947   1.416       .  A
C946        H951   1.077       .  S
C947        C948   1.420       .  A
C948        F949   1.351       .  S
C953        C954   1.417       .  A
C953        C958   1.419       .  A
C953        H960   1.075       .  S
C954        C955   1.414       .  A
C955        C956   1.413       .  A
C955        F962   1.356       .  S
C956        C957   1.425       .  A
C956        H961   1.078       .  S
C957        C958   1.411       .  A
C958        F959   1.353       .  S
C963        C964   1.417       .  A
C963        C968   1.401       .  A
C963        H970   1.079       .  S
C964        C965   1.414       .  A
C965        C966   1.394       .  A
C965        F972   1.353       .  S
C966        C967   1.400       .  A
C966        H971   1.083       .  S
C967        C968   1.403       .  A
C968        F969   1.357       .  S
C973        C974   1.411       .  A
C973        C978   1.399       .  A
C973        H980   1.071       .  S
C974        C975   1.424       .  A
C975        C976   1.412       .  A
C975        F982   1.351       .  S
C976        C977   1.416       .  A
C976        H981   1.072       .  S
C977        C978   1.414       .  A
C978        F979   1.355       .  S
C983        C984   1.412       .  A
C983        C988   1.414       .  A
C983        H990   1.076       .  S
C984        C985   1.421       .  A
C985        C986   1.408       .  A
C985        F992   1.357       .  S
C986        C987   1.409       .  A
C986        H991   1.075       .  S
C987        C988   1.414       .  A
C988        F989   1.355       .  S
C993        C994   1.425       .  A
C993        C998   1.408       .  A
C993       H1000   1.062       .  S
C994        C995   1.418       .  A
C995        C996   1.416       .  A
C995       F1002   1.357       .  S
C996        C997   1.412       .  A
C996       H1001   1.073       .  S
C997        C998   1.417       .  A
C998        F999   1.357       .  S
C1003      C1004   1.415       .  A
C1003      C1008   1.399       .  A
C1003      H1010   1.079       .  S
C1004      C1005   1.414       .  A
C1005      C1006   1.394       .  A
C1005      F1012   1.355       .  S
C1006      C1007   1.401       .  A
C1006      H1011   1.083       .  S
C1007      C1008   1.401       .  A
C1008      F1009   1.357       .  S
