geometry optimzed in LAMMPS
_audit_creation_date              2020-11-30 
_audit_creation_method            'lammps2cif' 
_symmetry_space_group_name_H-M    'P1' 
_symmetry_Int_Tables_number       1 
_symmetry_cell_setting            triclinic 
loop_ 
_symmetry_equiv_pos_as_xyz 
  x,y,z 
_cell_length_a                    42.22036633 
_cell_length_b                    35.69584002040802 
_cell_length_c                    45.57964910983908 
_cell_angle_alpha                 85.20809534549475 
_cell_angle_beta                  87.93441767335459 
_cell_angle_gamma                 120.58740939638646 
loop_ 
_atom_site_label 
_atom_site_type_symbol 
_atom_site_fract_x 
_atom_site_fract_y 
_atom_site_fract_z 
_atom_site_charge 
Zr1        Zr  0.27600270  0.11637554  0.80850347     2.17500
O2          O  0.24180904  0.10126898  0.76468051    -0.52400
O3          O  0.22051642  0.08703148  0.84203924    -0.75600
O4          O  0.25168601  0.04123145  0.79598980    -0.82400
O5          O  0.29715074  0.23477030  0.80345959    -0.84200
O6          O  0.29118991  0.01879772  0.80951185    -0.79800
O7          O  0.25672163  0.16767237  0.79025944    -0.91400
O8          O  0.23721063  0.09662630  0.88887620    -0.77400
O9          O  0.28741790  0.08020142  0.84953945    -0.86900
O10         O  0.29059797  0.16175902  0.84738831    -0.86600
O11         O  0.32743452  0.11028069  0.79101879    -0.73300
O12         O  0.32925817  0.18568094  0.78943645    -0.85500
Zr13       Zr  0.40736904  0.18828092  0.85372333     2.26400
Zr14       Zr  0.33956182  0.07564324  0.83292532     2.06300
Zr15       Zr  0.34433648  0.22986429  0.82898103     2.10000
Zr16       Zr  0.30259316  0.12588038  0.88806491     1.78800
O17         O  0.37646268  0.29443115  0.79257114    -0.94300
O18         O  0.27641858  0.05378553  0.91621753    -0.42100
O19         O  0.35620200  0.19467568  0.87048367    -0.78700
O20         O  0.35412461  0.11915579  0.87318356    -0.97400
O21         O  0.39301352  0.14383062  0.81443190    -0.90700
O22         O  0.39648241  0.22528531  0.81264731    -0.93500
C23         C  0.21323690  0.08490713  0.86993377     1.00200
C24         C  0.26823128  0.20859632  0.79129893     1.13200
C25         C  0.26234184  0.01312589  0.79763759     1.03900
O26         O  0.30779689  0.00675244  0.86545050    -0.95700
O27         O  0.38693495  0.06967446  0.85724082    -0.91400
O28         O  0.42849258  0.13746186  0.86867482    -0.84600
C29         C  0.41689922  0.09649646  0.86789139     1.10600
O30         O  0.35487934  0.17461076  0.72660966    -0.97700
Zr31       Zr  0.38095213  0.17970384  0.77393690     1.88900
O32         O  0.46307608  0.21800182  0.82074482    -0.74300
O33         O  0.36854215  0.05005302  0.79916609    -0.53600
O34         O  0.39451900  0.13652993  0.74274644    -0.98200
O35         O  0.40932123  0.25000631  0.74299598    -0.55500
O36         O  0.44590386  0.20662302  0.77418687    -0.74800
C37         C  0.46995576  0.21838702  0.79305073     0.97500
O38         O  0.44166924  0.20765350  0.89736693    -0.63600
O39         O  0.31970448  0.26265967  0.86060908    -0.58400
O40         O  0.42898883  0.26043850  0.87046717    -0.95100
O41         O  0.39028590  0.28377186  0.85608710    -0.93600
O42         O  0.29415854  0.17355913  0.91854878    -0.93900
O43         O  0.32198581  0.12834288  0.93789375    -0.92700
C44         C  0.41809382  0.28833534  0.86925556     1.16400
H45         H  0.27098940  0.16697840  0.85253808     0.32300
H46         H  0.35969345  0.10587611  0.88996837     0.43200
H47         H  0.41775842  0.25393307  0.80665504     0.36700
H48         H  0.32109810  0.09268086  0.77481333     0.33200
H49         H  0.25871081  0.03301973  0.90354923     0.25000
H50         H  0.35805486  0.01873819  0.80650366     0.30900
H51         H  0.40945555  0.12769724  0.75445166     0.36800
H52         H  0.27726088  0.18056883  0.90821647     0.31300
H53         H  0.32181541  0.28782920  0.84786960     0.30100
H54         H  0.37753047  0.31844157  0.80273925     0.31800
H55         H  0.43381067  0.26834756  0.75027681     0.30800
H56         H  0.34926502  0.14331173  0.93500502     0.34800
H57         H  0.42886587  0.18103817  0.91191178     0.27500
H58         H  0.21721558  0.07503673  0.77094421     0.31800
H59         H  0.32872950  0.16535615  0.73177928     0.34600
H60         H  0.29281996  0.24135156  0.86396864     0.27200
H61         H  0.46585140  0.21090448  0.89154284     0.40100
H62         H  0.32065568  0.01294852  0.88373444     0.30100
H63         H  0.29683049  0.04772036  0.91612885     0.37800
H64         H  0.39484362  0.26337651  0.74882494     0.29600
H65         H  0.35768833  0.04969913  0.78021988     0.29700
H66         H  0.25409273  0.09145947  0.75095413     0.29900
C67         C  0.12184385  0.28092616  0.74631407     0.85400
C68         C  0.13252854  0.28945162  0.71277449    -0.54800
C69         C  0.16980495  0.31311460  0.70508467     0.08300
C70         C  0.19301292  0.32491396  0.73178015     0.19300
C71         C  0.14173164  0.25773412  0.75831536    -0.55600
C72         C  0.17903723  0.28040018  0.75068114     0.08400
C73         C  0.14198728  0.32621319  0.75692228    -0.55100
C74         C  0.17903879  0.34962826  0.74935948     0.09000
H75         H  0.11281737  0.27658889  0.69657218     0.13500
H76         H  0.22321309  0.34370293  0.72531561    -0.00700
H77         H  0.12738184  0.22602557  0.77166820     0.13800
H78         H  0.12775473  0.33848439  0.76976295     0.13600
C79         C  0.06209177  0.02182393  0.91455495     0.85400
C80         C  0.04127494  0.47774540  0.90604244    -0.54800
C81         C  0.50384115  0.45554250  0.91369297     0.08300
C82         C  0.49106738  0.48255822  0.93001178     0.19300
C83         C  0.04330179  0.04502913  0.90032263    -0.55600
C84         C  0.50664409  0.02547787  0.90919918     0.08400
C85         C  0.05246906  0.01831726  0.94794257    -0.55100
C86         C  0.01538969  0.99734597  0.95616505     0.09000
H87         H  0.05489868  0.46409686  0.89391261     0.13500
H88         H  0.46098937  0.46477920  0.93682750    -0.00700
H89         H  0.05827836  0.07495654  0.88512842     0.13800
H90         H  0.07293250  0.03249701  0.96344147     0.13600
Zr91       Zr  0.47988469  0.05376925  0.52378122     2.17500
O92         O  0.45881011  0.07571926  0.56605744    -0.52400
O93         O  0.45457484  0.08738805  0.49091310    -0.75600
O94         O  0.02770551  0.12611427  0.53797152    -0.82400
O95         O  0.39764615  0.43526878  0.54038159    -0.84200
O96         O  0.07026573  0.14786092  0.49973375    -0.79800
O97         O  0.41418211  0.50546944  0.54577960    -0.91400
O98         O  0.46070438  0.07358012  0.44385945    -0.77400
O99         O  0.02085627  0.08285175  0.48086084    -0.86900
O100        O  0.45282637  0.50277321  0.49132062    -0.86600
O101        O  0.03505520  0.05659911  0.53974908    -0.75700
O102        O  0.47319998  0.48559793  0.54838792    -0.85500
Zr103      Zr  0.03989210  0.46371285  0.47469873     2.26400
Zr104      Zr  0.07566077  0.08493540  0.49516556     2.06300
Zr105      Zr  0.44673265  0.43593548  0.51249431     2.10000
Zr106      Zr  0.49588348  0.03754818  0.44283398     1.78800
O107        O  0.42204499  0.37529572  0.55199024    -0.94300
O108        O  0.03189220  0.09835043  0.41023132    -0.42100
O109        O  0.48537021  0.46247675  0.46707239    -0.78700
O110        O  0.05082611  0.03808059  0.45702185    -0.97400
O111        O  0.06893131  0.01691773  0.51435068    -0.90700
O112        O  0.99859718  0.43334620  0.51887508    -0.93500
C113        C  0.44896444  0.08853665  0.46339617     1.00200
C114        C  0.39051043  0.46369616  0.54855640     1.13200
C115        C  0.05913003  0.15476976  0.52387117     1.03900
O116        O  0.12406868  0.15093568  0.46551953    -0.95700
O117        O  0.12684392  0.08643956  0.46965979    -0.91400
O118        O  0.10859334  0.01831636  0.45749227    -0.84600
C119        C  0.13316692  0.05932538  0.45798342     1.10600
O120        O  0.00694055  0.48940574  0.60480484    -0.97700
Zr121      Zr  0.02581255  0.48070102  0.55587994     1.88900
O122        O  0.06829585  0.43271734  0.50660085    -0.74300
O123        O  0.11518606  0.11022611  0.53545717    -0.53600
O124        O  0.08318713  0.03478461  0.58134688    -0.98200
O125        O  0.49188327  0.42366343  0.59326152    -0.55500
O126        O  0.06203429  0.44602079  0.55381550    -0.74800
C127        C  0.07410877  0.43162398  0.53411782     0.97500
O128        O  0.05302276  0.43831590  0.43038510    -0.63600
O129        O  0.39234840  0.40211840  0.48491020    -0.58400
O130        O  0.99229043  0.38990752  0.46142642    -0.95100
O131        O  0.43913529  0.37391847  0.49117213    -0.93600
O132        O  0.43825734  0.48406423  0.42226606    -0.93900
O133        O  0.00961558  0.02205810  0.39589809    -0.92700
C134        C  0.45861874  0.36597814  0.47366164     1.16400
H135        H  0.42881845  0.49825628  0.48770585     0.32300
H136        H  0.06766459  0.04984442  0.43931910     0.43200
H137        H  0.49744694  0.40948434  0.53098351     0.36700
H138        H  0.04554780  0.07549710  0.55503926     0.33200
H139        H  0.01516377  0.10888381  0.40432385     0.25000
H140        H  0.13198434  0.09873735  0.53310709     0.30900
H141        H  0.08640367  0.50629546  0.59148222     0.36800
H142        H  0.43755087  0.96411224  0.41955226     0.31300
H143        H  0.37231002  0.37934598  0.49934269     0.30100
H144        H  0.39737491  0.35362506  0.54639073     0.31800
H145        H  0.99499665  0.39061086  0.57937660     0.30800
H146        H  0.01701715  0.99992375  0.39933802     0.34800
H147        H  0.06401239  0.46408325  0.41512689     0.27500
H148        H  0.46437232  0.10587493  0.55990725     0.31800
H149        H  0.01926427  0.47947319  0.61885268     0.34600
H150        H  0.38542919  0.42457469  0.48083380     0.27200
H151        H  0.07356783  0.43350222  0.43478008     0.40100
H152        H  0.11188898  0.15516168  0.44845530     0.30100
H153        H  0.04934835  0.12053557  0.42228281     0.37800
H154        H  0.46656528  0.41860175  0.59300017     0.29600
H155        H  0.13118192  0.14226733  0.53002345     0.29700
H156        H  0.47584126  0.07878935  0.58131559     0.29900
C157        C  0.29168597  0.14389411  0.42187239     0.85400
C158        C  0.30017474  0.15366624  0.38814652    -0.54800
C159        C  0.33688646  0.17463245  0.37875223     0.08300
C160        C  0.36207186  0.18476468  0.40408647     0.19300
C161        C  0.31119598  0.11897264  0.43196139    -0.55600
C162        C  0.34801365  0.14058817  0.42267075     0.08400
C163        C  0.31514946  0.18883725  0.43366307    -0.55100
C164        C  0.35223864  0.21016515  0.42443308     0.09000
H165        H  0.27855892  0.14421071  0.37327265     0.13500
H166        H  0.39197866  0.20190650  0.39660636    -0.00700
H167        H  0.29817036  0.08854325  0.44663193     0.13800
H168        H  0.30372090  0.20144301  0.44908279     0.13600
C169        C  0.23054962  0.37605504  0.57768585     0.85400
C170        C  0.20836174  0.33193199  0.56442772    -0.54800
C171        C  0.17095835  0.30913976  0.57310791     0.08300
C172        C  0.15971924  0.33260583  0.59413005     0.19300
C173        C  0.21047951  0.40058264  0.56845022    -0.55600
C174        C  0.17342790  0.37760638  0.57680848     0.08400
C175        C  0.22099638  0.36371171  0.61117169    -0.55100
C176        C  0.18409224  0.34088104  0.61982821     0.09000
H177        H  0.22099724  0.32059713  0.54907618     0.13500
H178        H  0.12969161  0.31470338  0.60117669    -0.00700
H179        H  0.22320620  0.43187407  0.55486638     0.13800
H180        H  0.24217418  0.37306006  0.62644488     0.13600
Zr181      Zr  0.10975182  0.30178001  0.14556396     2.17500
O182        O  0.07377410  0.28872674  0.10288959    -0.52400
O183        O  0.05397986  0.27036084  0.17888789    -0.75600
O184        O  0.08830182  0.22900793  0.12971256    -0.82400
O185        O  0.12940983  0.41934219  0.14126593    -0.84200
O186        O  0.12660942  0.20547336  0.14475209    -0.79800
O187        O  0.08939655  0.35215717  0.12801233    -0.91400
O188        O  0.06981507  0.27735036  0.22603358    -0.77400
O189        O  0.12108447  0.26452533  0.18607114    -0.86900
O190        O  0.12330042  0.34555077  0.18523519    -0.86600
O191        O  0.16180450  0.29735100  0.12774952    -0.73300
O192        O  0.16236228  0.37203806  0.12731934    -0.85500
Zr193      Zr  0.24064151  0.37429669  0.19119218     2.26400
Zr194      Zr  0.17431288  0.26205505  0.16916643     2.06300
Zr195      Zr  0.17623341  0.41474263  0.16773745     2.10000
Zr196      Zr  0.13548258  0.30900268  0.22531461     1.78800
O197        O  0.20777880  0.48359695  0.13513803    -0.94300
O198        O  0.11252398  0.23727337  0.25306701    -0.42100
O199        O  0.18857950  0.37886844  0.20850083    -0.78700
O200        O  0.18797833  0.30439947  0.20987086    -0.97400
O201        O  0.22708438  0.33113923  0.15138623    -0.90700
O202        O  0.22905192  0.41176437  0.15088642    -0.93500
C203        C  0.04624346  0.26697488  0.20681647     1.00200
C204        C  0.10056909  0.39293958  0.12912075     1.13200
C205        C  0.09874654  0.20071114  0.13158484     1.03900
O206        O  0.14565102  0.19532676  0.20378064    -0.95700
O207        O  0.22382355  0.25855460  0.19201752    -0.91400
O208        O  0.26453637  0.32583897  0.20474669    -0.84600
C209        C  0.25361649  0.28522288  0.20304917     1.10600
O210        O  0.19307919  0.36895511  0.06288520    -0.97700
Zr211      Zr  0.21466850  0.36748604  0.11154293     1.88900
O212        O  0.29688181  0.40452972  0.15862981    -0.74300
O213        O  0.20385122  0.23678755  0.13570865    -0.53600
O214        O  0.22464113  0.32248449  0.07946255    -0.98200
O215        O  0.24463305  0.43988806  0.08319758    -0.55500
O216        O  0.27878153  0.39069861  0.11254734    -0.74800
C217        C  0.30326011  0.40353043  0.13104598     0.97500
O218        O  0.26996948  0.39166619  0.23720305    -0.63600
O219        O  0.14764055  0.44125731  0.20120892    -0.58400
O220        O  0.26333102  0.44683522  0.20676104    -0.95100
O221        O  0.22218571  0.46779110  0.19539148    -0.93600
O222        O  0.11842051  0.34992108  0.25590046    -0.93900
O223        O  0.15707972  0.31506304  0.27452305    -0.92700
C224        C  0.25124342  0.47345171  0.20702535     1.16400
H225        H  0.10317566  0.34978162  0.19063397     0.32300
H226        H  0.19399013  0.29102131  0.22630186     0.43200
H227        H  0.25012977  0.44074552  0.14527408     0.36700
H228        H  0.15606180  0.28052200  0.11117469     0.33200
H229        H  0.09528487  0.21601862  0.24039636     0.25000
H230        H  0.18887034  0.20438845  0.13918878     0.30900
H231        H  0.24817224  0.34305150  0.06736849     0.36800
H232        H  0.14087075  0.37941619  0.25462614     0.31300
H233        H  0.15218455  0.46915997  0.19063304     0.30100
H234        H  0.19234711  0.49688787  0.13761563     0.31800
H235        H  0.26785758  0.45780629  0.09233762     0.30800
H236        H  0.18138500  0.31731391  0.27186798     0.34800
H237        H  0.25526947  0.36468654  0.25120782     0.27500
H238        H  0.05005238  0.26106536  0.10882158     0.31800
H239        H  0.16587035  0.34985570  0.06620890     0.34600
H240        H  0.12066190  0.42103764  0.20144380     0.27200
H241        H  0.29420291  0.39406476  0.23337354     0.40100
H242        H  0.15720858  0.17877573  0.19750472     0.30100
H243        H  0.13387034  0.23289684  0.25265265     0.37800
H244        H  0.22893890  0.45201860  0.08837603     0.29600
H245        H  0.19880428  0.24432516  0.11571793     0.29700
H246        H  0.08662931  0.28177334  0.08759802     0.29900
C247        C  0.45363830  0.46861167  0.08337711     0.85400
C248        C  0.46323099  0.47439454  0.04968240    -0.54800
C249        C  0.00075863  0.49230483  0.04173802     0.08300
C250        C  0.02642614  0.00912344  0.06764998     0.19300
C251        C  0.47289738  0.44512582  0.09626506    -0.55600
C252        C  0.01082483  0.46415199  0.08870254     0.08400
C253        C  0.47490577  0.01176234  0.09338396    -0.55100
C254        C  0.01365356  0.03595994  0.08412947     0.09000
H255        H  0.44298534  0.46231336  0.03383293     0.13500
H256        H  0.05645851  0.02723246  0.06060697    -0.00700
H257        H  0.45823462  0.41436750  0.11068500     0.13800
H258        H  0.46087999  0.02439186  0.10611945     0.13600
C259        C  0.39665274  0.20728642  0.25150809     0.85400
C260        C  0.37476055  0.16157186  0.24194208    -0.54800
C261        C  0.33781742  0.14018706  0.24966827     0.08300
C262        C  0.32569944  0.16758828  0.26631467     0.19300
C263        C  0.37842158  0.23205673  0.23864072    -0.55600
C264        C  0.34120665  0.21167855  0.24621493     0.08400
C265        C  0.38637595  0.20062741  0.28505475    -0.55100
C266        C  0.34919962  0.18001758  0.29298961     0.09000
H267        H  0.38778930  0.14744150  0.22958958     0.13500
H268        H  0.29558411  0.15039551  0.27289069    -0.00700
H269        H  0.39383929  0.26289293  0.22438594     0.13800
H270        H  0.40641674  0.21142373  0.30107243     0.13600
C271        C  0.34909586  0.42101692  0.08860358    -0.14400
C272        C  0.34104595  0.41755166  0.11923602     0.07700
C273        C  0.36912380  0.42701052  0.13796916    -0.14400
C274        C  0.40488039  0.44133986  0.12606581    -0.14400
C275        C  0.41340424  0.44672828  0.09522238     0.07700
C276        C  0.38473674  0.43547001  0.07671779    -0.14400
H277        H  0.32795883  0.41350478  0.07350881     0.11700
H278        H  0.36364078  0.42394388  0.16171369     0.11700
H279        H  0.42638143  0.44977289  0.14092549     0.11700
H280        H  0.38920774  0.43887484  0.05301370     0.11700
C281        C  0.09100107  0.13055232  0.11683557    -0.14400
C282        C  0.07811042  0.16003970  0.11732974     0.07700
C283        C  0.04560711  0.15004805  0.10415285    -0.14400
C284        C  0.02567930  0.11066584  0.09195574    -0.14400
C285        C  0.03789237  0.08053133  0.09254773     0.07700
C286        C  0.07112715  0.09131437  0.10451201    -0.14400
H287        H  0.11617228  0.13730377  0.12650703     0.11700
H288        H  0.03512945  0.17216018  0.10380845     0.11700
H289        H  0.00020169  0.10330323  0.08258476     0.11700
H290        H  0.08088266  0.06857340  0.10566013     0.11700
C291        C  0.04182603  0.38313672  0.11035498    -0.14400
C292        C  0.07855712  0.41100440  0.11624410     0.07700
C293        C  0.09353030  0.45663447  0.11126741    -0.14400
C294        C  0.07194635  0.47390678  0.10162295    -0.14400
C295        C  0.03469794  0.44605840  0.09714798     0.07700
C296        C  0.02016056  0.40044255  0.10100431    -0.14400
H297        H  0.02945841  0.34788627  0.11375250     0.11700
H298        H  0.12188763  0.47913637  0.11525575     0.11700
H299        H  0.08666782  0.01011881  0.09530643     0.11700
H300        H  0.99190527  0.37792107  0.09684575     0.11700
C301        C  0.26076360  0.22149282  0.22029295    -0.14400
C302        C  0.27624531  0.26715519  0.21477222     0.07700
C303        C  0.31319188  0.29465891  0.22041269    -0.14400
C304        C  0.33417400  0.27680468  0.23084662    -0.14400
C305        C  0.31865409  0.23100263  0.23611143     0.07700
C306        C  0.28155837  0.20375508  0.23102809    -0.14400
H307        H  0.23232922  0.19920623  0.21639681     0.11700
H308        H  0.32601729  0.32994625  0.21646117     0.11700
H309        H  0.36249897  0.29899982  0.23501487     0.11700
H310        H  0.26859672  0.16857437  0.23471983     0.11700
C311        C  0.25866973  0.04294752  0.22016262    -0.14400
C312        C  0.27195556  0.51376945  0.22141379     0.07700
C313        C  0.30597383  0.02566928  0.23034293    -0.14400
C314        C  0.32615399  0.06553342  0.24190567    -0.14400
C315        C  0.31331653  0.09509352  0.24197059     0.07700
C316        C  0.27885610  0.08276283  0.23181012    -0.14400
H317        H  0.23256684  0.03502115  0.21175073     0.11700
H318        H  0.31907001  0.50636800  0.22843554     0.11700
H319        H  0.35234854  0.07369251  0.25021610     0.11700
H320        H  0.26824817  0.10463776  0.23153821     0.11700
C321        C  0.48266061  0.25048327  0.19838431    -0.14400
C322        C  0.00807527  0.25263249  0.21766563     0.07700
C323        C  0.99797229  0.24566828  0.24816287    -0.14400
C324        C  0.46474058  0.23544276  0.25957950    -0.14400
C325        C  0.43711622  0.22811701  0.24054262     0.07700
C326        C  0.44672407  0.23599890  0.20979203    -0.14400
H327        H  0.98929855  0.25453131  0.17419766     0.11700
H328        H  0.01727043  0.24822934  0.26403626     0.11700
H329        H  0.45924936  0.22888238  0.28325875     0.11700
H330        H  0.42599656  0.22989880  0.19451561     0.11700
C331        C  0.35248669  0.18571166  0.34736957    -0.17500
C332        C  0.33245474  0.17016173  0.32413589    -0.32700
H333        H  0.38218357  0.20681548  0.34397043     0.11500
H334        H  0.30269705  0.14913599  0.32768343     0.12100
C335        C  0.19362817  0.12361584  0.43561998    -0.14400
C336        C  0.17205442  0.07830069  0.44520778     0.07700
C337        C  0.18948873  0.05375652  0.44590528    -0.14400
C338        C  0.22783844  0.07440417  0.43864938    -0.14400
C339        C  0.24988988  0.12032213  0.43070142     0.07700
C340        C  0.23172613  0.14411662  0.42820733    -0.14400
H341        H  0.18107810  0.14360381  0.43436315     0.11700
H342        H  0.17373466  0.01887285  0.45304338     0.11700
H343        H  0.23972402  0.05384536  0.43907685     0.11700
H344        H  0.24718121  0.17895854  0.42087964     0.11700
C345        C  0.44066725  0.31898739  0.43165759    -0.14400
C346        C  0.43689102  0.32312772  0.46175776     0.07700
C347        C  0.40602690  0.28869108  0.47955997    -0.14400
C348        C  0.37867946  0.25252317  0.46741963    -0.14400
C349        C  0.38142194  0.24931675  0.43709774     0.07700
C350        C  0.41329911  0.28223669  0.41950026    -0.14400
H351        H  0.96099558  0.34146899  0.41202559     0.11700
H352        H  0.40213651  0.29075621  0.50287551     0.11700
H353        H  0.35523759  0.22708607  0.48180787     0.11700
H354        H  0.41637857  0.28037496  0.39607645     0.11700
C355        C  0.37097081  0.11124134  0.46296875    -0.14400
C356        C  0.37356410  0.12668356  0.43310560     0.07700
C357        C  0.40244294  0.13203702  0.41366385    -0.14400
C358        C  0.42789798  0.12117848  0.42375277    -0.14400
C359        C  0.42520910  0.10540545  0.45359043     0.07700
C360        C  0.39675524  0.10098908  0.47318107    -0.14400
H361        H  0.34934690  0.10773191  0.47850233     0.11700
H362        H  0.40500462  0.14403882  0.39056106     0.11700
H363        H  0.44945532  0.12463872  0.40815224     0.11700
H364        H  0.39373033  0.08828369  0.49618652     0.11700
C365        C  0.29410438  0.44637113  0.55996960    -0.14400
C366        C  0.27270439  0.40098735  0.57023256     0.07700
C367        C  0.29173126  0.37892033  0.57664862    -0.14400
C368        C  0.33020928  0.40049854  0.57174625    -0.14400
C369        C  0.35128884  0.44509379  0.56013159     0.07700
C370        C  0.33282370  0.46800474  0.55490992    -0.14400
H371        H  0.28164080  0.46594560  0.55585819     0.11700
H372        H  0.27662885  0.34457476  0.58541937     0.11700
H373        H  0.34346978  0.38167997  0.57618983     0.11700
H374        H  0.34811627  0.50217757  0.54575040     0.11700
C375        C  0.08161706  0.20135053  0.56606251    -0.14400
C376        C  0.08550671  0.19600409  0.53620431     0.07700
C377        C  0.11808652  0.22801200  0.51884213    -0.14400
C378        C  0.14610179  0.26378315  0.53096092    -0.14400
C379        C  0.14246541  0.26892311  0.56082613     0.07700
C380        C  0.10972210  0.23737573  0.57819375    -0.14400
H381        H  0.05740173  0.17704473  0.58026363     0.11700
H382        H  0.12233875  0.22509673  0.49577257     0.11700
H383        H  0.17038811  0.28786073  0.51674583     0.11700
H384        H  0.10601277  0.24010205  0.60138035     0.11700
C385        C  0.11717411  0.38345285  0.58415196    -0.14400
C386        C  0.14774616  0.39112727  0.56579160     0.07700
C387        C  0.15255456  0.40954873  0.53630200    -0.14400
C388        C  0.12756425  0.42080897  0.52550222    -0.14400
C389        C  0.09758903  0.41435084  0.54412437     0.07700
C390        C  0.09251071  0.39533962  0.57350173    -0.14400
H391        H  0.11277177  0.36910773  0.60690902     0.11700
H392        H  0.17544725  0.41483726  0.52147591     0.11700
H393        H  0.13235015  0.43585894  0.50289349     0.11700
H394        H  0.06962967  0.39010661  0.58833712     0.11700
C395        C  0.99887811  0.98992509  0.98700416    -0.17500
C396        C  0.01759649  0.50121218  0.01092644    -0.32700
H397        H  0.96902727  0.97239090  0.98983741     0.11500
H398        H  0.54701447  0.52373952  0.00765319     0.12100
C399        C  0.18693426  0.32700180  0.67413826    -0.17500
C400        C  0.16770250  0.32567861  0.65084692    -0.32700
H401        H  0.21637336  0.33979669  0.67096401     0.11500
H402        H  0.13839501  0.31348705  0.65412442     0.12100
C403        C  0.42401287  0.35641988  0.88642781    -0.14400
C404        C  0.43856454  0.32885162  0.88372613     0.07700
C405        C  0.47303837  0.34129557  0.89407957    -0.14400
C406        C  0.49334602  0.38146510  0.90527018    -0.14400
C407        C  0.47969407  0.41015555  0.90631072     0.07700
C408        C  0.44432541  0.39652954  0.89766633    -0.14400
H409        H  0.39719199  0.34756697  0.87914564     0.11700
H410        H  0.48482916  0.32065710  0.89274199     0.11700
H411        H  0.01982616  0.38964500  0.91457653     0.11700
H412        H  0.43298769  0.41761812  0.89823582     0.11700
C413        C  0.14828163  0.06395568  0.86184214    -0.14400
C414        C  0.17495141  0.06932551  0.88122316     0.07700
C415        C  0.16512381  0.06109244  0.91181952    -0.14400
C416        C  0.12933395  0.04739104  0.92290758    -0.14400
C417        C  0.10243141  0.04217686  0.90364712     0.07700
C418        C  0.11239670  0.05031395  0.87294486    -0.14400
H419        H  0.15506054  0.07017659  0.83812264     0.11700
H420        H  0.18498074  0.06449954  0.92736735     0.11700
H421        H  0.12336298  0.54187474  0.94751996     0.11700
H422        H  0.09205425  0.04514543  0.85747241     0.11700
C423        C  0.42369855  0.03331393  0.88745468    -0.14400
C424        C  0.43950642  0.07868809  0.87970001     0.07700
C425        C  0.47731925  0.10648541  0.88226717    -0.14400
C426        C  0.49894150  0.08928450  0.89190934    -0.14400
C427        C  0.48330991  0.04378803  0.89932884     0.07700
C428        C  0.44528619  0.01614447  0.89726811    -0.14400
H429        H  0.39455767  0.01093754  0.88583556     0.11700
H430        H  0.49037050  0.14154137  0.87636901     0.11700
H431        H  0.02762973  0.11146562  0.89536877     0.11700
H432        H  0.43246071  0.48181762  0.89978420     0.11700
C433        C  0.21139808  0.19992593  0.76905620    -0.14400
C434        C  0.24658294  0.22718900  0.77831689     0.07700
C435        C  0.26023891  0.27256686  0.77654333    -0.14400
C436        C  0.23875370  0.28991792  0.76684618    -0.14400
C437        C  0.20295753  0.26242375  0.75896792     0.07700
C438        C  0.18977831  0.21731542  0.75965412    -0.14400
H439        H  0.20011088  0.16495982  0.76982429     0.11700
H440        H  0.28735917  0.29475717  0.78320751     0.11700
H441        H  0.24981290  0.32466138  0.76648493     0.11700
H442        H  0.16259447  0.19534454  0.75302973     0.11700
C443        C  0.03480225  0.23371156  0.79874367    -0.14400
C444        C  0.50781527  0.23182210  0.78190469     0.07700
C445        C  0.01785969  0.23704058  0.74886209    -0.14400
C446        C  0.05382944  0.25156709  0.73767274    -0.14400
C447        C  0.08107126  0.25779616  0.75688828     0.07700
C448        C  0.07079982  0.24793526  0.78755605    -0.14400
H449        H  0.52768395  0.23189506  0.82512010     0.11700
H450        H  0.99786462  0.23356158  0.73342692     0.11700
H451        H  0.05982992  0.25960681  0.71407022     0.11700
H452        H  0.09117981  0.25299175  0.80297003     0.11700
C453        C  0.25762823  0.44775779  0.77809050    -0.14400
C454        C  0.24243652  0.47443875  0.78166367     0.07700
C455        C  0.20788393  0.46194979  0.77145376    -0.14400
C456        C  0.18803392  0.42230295  0.75960601    -0.14400
C457        C  0.20236149  0.39442493  0.75772096     0.07700
C458        C  0.23785379  0.40831601  0.76611715    -0.14400
H459        H  0.28255943  0.95308139  0.78892085     0.11700
H460        H  0.19578280  0.48219452  0.77328263     0.11700
H461        H  0.16112214  0.41311090  0.75240231     0.11700
H462        H  0.24981604  0.38801588  0.76466298     0.11700
Zr463      Zr  0.27527967  0.61631790  0.80910474     2.17500
O464        O  0.23974900  0.60182935  0.76601418    -0.52400
O465        O  0.22010889  0.58667988  0.84317766    -0.75600
O466        O  0.25215933  0.54273945  0.79461254    -0.82400
O467        O  0.29497514  0.73297607  0.80471914    -0.84200
O468        O  0.29132821  0.51995737  0.80850822    -0.79800
O469        O  0.25420492  0.66569154  0.79204996    -0.91400
O470        O  0.23741217  0.59801807  0.88972190    -0.77400
O471        O  0.28696203  0.57989104  0.84965764    -0.86900
O472        O  0.29042178  0.66191198  0.84782499    -0.86600
O473        O  0.32684798  0.61093088  0.79116231    -0.73300
O474        O  0.32815189  0.68584616  0.78981667    -0.85500
Zr475      Zr  0.40751464  0.68916629  0.85298749     2.26400
Zr476      Zr  0.33949757  0.57626077  0.83269696     2.06300
Zr477      Zr  0.34378710  0.73019456  0.82929377     2.10000
Zr478      Zr  0.30258085  0.62574527  0.88811196     1.78800
O479        O  0.37663839  0.79366901  0.79203041    -0.94300
O480        O  0.27609026  0.55230054  0.91432014    -0.42100
O481        O  0.35610216  0.69480016  0.87045407    -0.78700
O482        O  0.35443869  0.62014042  0.87270195    -0.97400
O483        O  0.39254183  0.64458137  0.81384263    -0.90700
O484        O  0.39605648  0.72615272  0.81237616    -0.93500
C485        C  0.21321132  0.58585340  0.87097758     1.00200
C486        C  0.26561779  0.70645157  0.79315400     1.13200
C487        C  0.26299894  0.51487309  0.79595845     1.03900
O488        O  0.31067101  0.51086269  0.86853773    -0.95700
O489        O  0.38781493  0.57124645  0.85613349    -0.91400
O490        O  0.42793818  0.63835628  0.86935149    -0.84600
C491        C  0.41694808  0.59773690  0.86791236     1.10600
O492        O  0.35261256  0.67904117  0.72728702    -0.97700
Zr493      Zr  0.37989211  0.68037802  0.77366140     1.88900
O494        O  0.46202354  0.71565906  0.81879370    -0.74300
O495        O  0.36745191  0.54947557  0.79894979    -0.53600
O496        O  0.38834551  0.63626535  0.73976367    -0.98200
O497        O  0.41107467  0.75270983  0.74511109    -0.55500
O498        O  0.44376494  0.70119725  0.77278674    -0.74800
C499        C  0.46822805  0.71371323  0.79133255     0.97500
O500        O  0.44494577  0.71040471  0.89491861    -0.63600
O501        O  0.31984852  0.76576297  0.85886941    -0.58400
O502        O  0.42907841  0.76138697  0.86960573    -0.95100
O503        O  0.38771206  0.78222096  0.85888193    -0.93600
O504        O  0.29243541  0.67174865  0.91904136    -0.93900
O505        O  0.32313425  0.62600669  0.93734608    -0.92700
C506        C  0.41673967  0.78777929  0.87055107     1.16400
H507        H  0.27090981  0.66717992  0.85322215     0.32300
H508        H  0.36005759  0.60687661  0.88948599     0.43200
H509        H  0.41736864  0.75490087  0.80655881     0.36700
H510        H  0.32058741  0.59357216  0.77484540     0.33200
H511        H  0.25687449  0.54941954  0.92899327     0.25000
H512        H  0.35348298  0.51722444  0.80394614     0.30900
H513        H  0.40867889  0.65780887  0.72500540     0.36800
H514        H  0.29881436  0.69831755  0.90558190     0.31300
H515        H  0.32202326  0.79025068  0.84527615     0.30100
H516        H  0.36496791  0.81128377  0.79495049     0.31800
H517        H  0.42113571  0.74873324  0.72643421     0.30800
H518        H  0.34826480  0.65226489  0.93573576     0.34800
H519        H  0.43290251  0.68464033  0.91019718     0.27500
H520        H  0.21538538  0.57528000  0.77239416     0.31800
H521        H  0.32561322  0.66093479  0.73265016     0.34600
H522        H  0.29294106  0.74469797  0.86257764     0.27200
H523        H  0.46869463  0.71312704  0.88823083     0.40100
H524        H  0.31602847  0.49009023  0.85962251     0.30100
H525        H  0.26198239  0.53197512  0.89992532     0.37800
H526        H  0.43324859  0.77094859  0.75533068     0.29600
H527        H  0.36022747  0.55448057  0.77924227     0.29700
H528        H  0.25182065  0.59276161  0.75150882     0.29900
C529        C  0.12001906  0.77923341  0.74740420     0.85400
C530        C  0.13106716  0.78912482  0.71380205    -0.54800
C531        C  0.16844836  0.81259901  0.70631126     0.08300
C532        C  0.19127581  0.82280716  0.73327960     0.19300
C533        C  0.13933950  0.75523510  0.75894048    -0.55600
C534        C  0.17665536  0.77759356  0.75152856     0.08400
C535        C  0.14043237  0.82397562  0.75876357    -0.55100
C536        C  0.17750783  0.84712384  0.75151428     0.09000
H537        H  0.11154638  0.77817847  0.69736442     0.13500
H538        H  0.22151979  0.84151498  0.72704769    -0.00700
H539        H  0.12461490  0.72345921  0.77220460     0.13800
H540        H  0.12635272  0.83612113  0.77191644     0.13600
C541        C  0.06222286  0.52387630  0.91515728     0.85400
C542        C  0.04030657  0.97502119  0.90683114    -0.54800
C543        C  0.50441545  0.95473885  0.91491081     0.08300
C544        C  0.49225077  0.98280553  0.93052142     0.19300
C545        C  0.04292020  0.54713339  0.90189175    -0.55600
C546        C  0.50553848  0.52604718  0.90969321     0.08400
C547        C  0.05200055  0.51798356  0.94860433    -0.55100
C548        C  0.01484305  0.49605653  0.95650941     0.09000
H549        H  0.05331311  0.96032413  0.89511630     0.13500
H550        H  0.46229683  0.96543388  0.93767928    -0.00700
H551        H  0.05774977  0.57796320  0.88758893     0.13800
H552        H  0.07210523  0.53127796  0.96444326     0.13600
Zr553      Zr  0.48043019  0.55375804  0.52646061     2.17500
O554        O  0.45870664  0.57552273  0.56841209    -0.52400
O555        O  0.45429804  0.58538624  0.49263226    -0.75600
O556        O  0.02722351  0.62618926  0.53653912    -0.82400
O557        O  0.39439214  0.93722866  0.53113461    -0.84200
O558        O  0.08172585  0.64365077  0.51196400    -0.79800
O559        O  0.41358545  0.00562741  0.54318198    -0.91400
O560        O  0.45753827  0.56653912  0.44663673    -0.77400
O561        O  0.02121002  0.58081066  0.48229657    -0.86900
O562        O  0.45330808  0.00747675  0.48585440    -0.86600
O563        O  0.03513650  0.55115074  0.53886892    -0.75700
O564        O  0.46914849  0.98279544  0.54298125    -0.85500
Zr565      Zr  0.04255761  0.96873866  0.47731044     2.26400
Zr566      Zr  0.07526469  0.57966491  0.49399765     2.06300
Zr567      Zr  0.44399557  0.93795098  0.50415565     2.10000
Zr568      Zr  0.49279733  0.53070234  0.44683382     1.78800
O569        O  0.41067857  0.87377330  0.54082045    -0.94300
O570        O  0.03323967  0.60539842  0.41706296    -0.42100
O571        O  0.48545564  0.96643307  0.46013034    -0.78700
O572        O  0.04927789  0.53420040  0.45559475    -0.97400
O573        O  0.06699238  0.51056169  0.51216445    -0.90700
O574        O  0.00155730  0.93874481  0.52164307    -0.93500
C575        C  0.44730423  0.58399925  0.46536181     1.00200
C576        C  0.38869715  0.96467117  0.54290240     1.13200
C577        C  0.06206289  0.65301895  0.52816456     1.03900
O578        O  0.10466601  0.63979115  0.45412999    -0.95700
O579        O  0.12609844  0.57904833  0.46971275    -0.91400
O580        O  0.10648481  0.51140320  0.45588988    -0.84600
C581        C  0.13174332  0.55185904  0.45738602     1.10600
O582        O  0.01669068  0.00305167  0.60735897    -0.97700
Zr583      Zr  0.02748218  0.98759541  0.55803454     1.88900
O584        O  0.07085795  0.93944793  0.51015938    -0.74300
O585        O  0.12565458  0.60939503  0.52582965    -0.53600
O586        O  0.08080020  0.52688227  0.58026358    -0.98200
O587        O  0.48468237  0.91153894  0.58443376    -0.55500
O588        O  0.06263191  0.95152714  0.55729516    -0.74800
C589        C  0.07578479  0.93800870  0.53778800     0.97500
O590        O  0.05839545  0.94061276  0.43580549    -0.63600
O591        O  0.39388649  0.91301933  0.47192857    -0.58400
O592        O  0.99454536  0.89550078  0.46309912    -0.95100
O593        O  0.43661136  0.87505114  0.48411023    -0.93600
O594        O  0.44409937  0.99485928  0.41437907    -0.93900
O595        O  0.00830958  0.52521320  0.39511085    -0.92700
C596        C  0.45640308  0.86548735  0.46829530     1.16400
H597        H  0.42986973  0.00436286  0.48184736     0.32300
H598        H  0.06614320  0.54609824  0.43791067     0.43200
H599        H  0.49090049  0.90594670  0.52349249     0.36700
H600        H  0.04628212  0.57014727  0.55399618     0.33200
H601        H  0.01787837  0.60720341  0.40172980     0.25000
H602        H  0.13415153  0.58812618  0.52741356     0.30900
H603        H  0.09097943  0.01507539  0.59068520     0.36800
H604        H  0.43297421  0.45392331  0.42803096     0.31300
H605        H  0.37321357  0.88598587  0.48306884     0.30100
H606        H  0.38578376  0.85646721  0.53391887     0.31800
H607        H  0.98436707  0.89634896  0.58064295     0.30800
H608        H  0.02479501  0.51316397  0.39708708     0.34800
H609        H  0.06798364  0.96457770  0.41928661     0.27500
H610        H  0.46147042  0.60405833  0.56118158     0.31800
H611        H  0.02493704  0.98744566  0.62114236     0.34600
H612        H  0.38558595  0.93444680  0.47171862     0.27200
H613        H  0.08013488  0.93879638  0.44117551     0.40100
H614        H  0.13007440  0.65880502  0.45961347     0.30100
H615        H  0.03530084  0.62688224  0.43042190     0.37800
H616        H  0.45913502  0.90298191  0.58038663     0.29600
H617        H  0.14603432  0.63572147  0.51380167     0.29700
H618        H  0.47736097  0.58238684  0.58284876     0.29900
C619        C  0.29036409  0.63760983  0.42078366     0.85400
C620        C  0.29895502  0.64648754  0.38704283    -0.54800
C621        C  0.33579782  0.66842991  0.37779968     0.08300
C622        C  0.36089812  0.67986473  0.40317674     0.19300
C623        C  0.31067629  0.61403740  0.43159757    -0.55600
C624        C  0.34752403  0.63642576  0.42240116     0.08400
C625        C  0.31311358  0.68330080  0.43190816    -0.55100
C626        C  0.35027590  0.70541616  0.42268255     0.09000
H627        H  0.27730867  0.63527637  0.37213009     0.13500
H628        H  0.39086728  0.69730289  0.39581797    -0.00700
H629        H  0.29813594  0.58399239  0.44665535     0.13800
H630        H  0.30114915  0.69597482  0.44677342     0.13600
C631        C  0.22992947  0.87810129  0.57826902     0.85400
C632        C  0.20666689  0.83431176  0.56477572    -0.54800
C633        C  0.16934458  0.81239709  0.57375270     0.08300
C634        C  0.15927457  0.83624492  0.59534062     0.19300
C635        C  0.21061427  0.90364823  0.56960123    -0.55600
C636        C  0.17382082  0.88160978  0.57846065     0.08400
C637        C  0.22070889  0.86535630  0.61187238    -0.55100
C638        C  0.18380147  0.84338621  0.62084411     0.09000
H639        H  0.21853223  0.82259788  0.54903282     0.13500
H640        H  0.12929520  0.81921131  0.60251869    -0.00700
H641        H  0.22347263  0.93477180  0.55576176     0.13800
H642        H  0.24199407  0.87373623  0.62696354     0.13600
Zr643      Zr  0.10927550  0.80162507  0.14465624     2.17500
O644        O  0.07488179  0.78896714  0.10103147    -0.52400
O645        O  0.05394036  0.77291902  0.17867603    -0.75600
O646        O  0.08479453  0.72740699  0.13036149    -0.82400
O647        O  0.13218195  0.92082834  0.13759122    -0.84200
O648        O  0.12368472  0.70426755  0.14435610    -0.79800
O649        O  0.08981907  0.85273358  0.12712976    -0.91400
O650        O  0.07144980  0.78457351  0.22515634    -0.77400
O651        O  0.11989154  0.76559916  0.18630393    -0.86900
O652        O  0.12503992  0.84827324  0.18276501    -0.86600
O653        O  0.16036530  0.79451206  0.12758059    -0.73300
O654        O  0.16298870  0.87006019  0.12469687    -0.85500
Zr655      Zr  0.24127644  0.87327529  0.18933702     2.26400
Zr656      Zr  0.17145962  0.75967599  0.17006394     2.06300
Zr657      Zr  0.17895682  0.91557216  0.16357995     2.10000
Zr658      Zr  0.13674087  0.81308541  0.22399753     1.78800
O659        O  0.21093931  0.98047007  0.12739354    -0.94300
O660        O  0.11175910  0.74237396  0.25381564    -0.42100
O661        O  0.19074308  0.88118134  0.20569631    -0.78700
O662        O  0.18759558  0.80497974  0.20942192    -0.97400
O663        O  0.22553635  0.82727177  0.15088956    -0.90700
O664        O  0.23075511  0.90975675  0.14787470    -0.93500
C665        C  0.04711394  0.77221463  0.20651287     1.00200
C666        C  0.10217773  0.89399855  0.12693713     1.13200
C667        C  0.09530138  0.69917640  0.13177765     1.03900
O668        O  0.13889528  0.69877640  0.20918778    -0.95700
O669        O  0.22048426  0.75488156  0.19256980    -0.91400
O670        O  0.26069105  0.82167511  0.20621376    -0.84600
C671        C  0.24979441  0.78118326  0.20426490     1.10600
O672        O  0.19074433  0.85622405  0.06135262    -0.97700
Zr673      Zr  0.21436096  0.86306039  0.10980495     1.88900
O674        O  0.29640749  0.90070637  0.15578065    -0.74300
O675        O  0.19641476  0.72348164  0.14228814    -0.53600
O676        O  0.22851185  0.81887419  0.08017006    -0.98200
O677        O  0.24084005  0.93389410  0.07968814    -0.55500
O678        O  0.27929553  0.89006388  0.10914480    -0.74800
C679        C  0.30332104  0.90166980  0.12799372     0.97500
O680        O  0.28015001  0.89655491  0.23029651    -0.63600
O681        O  0.15307856  0.94683913  0.19546478    -0.58400
O682        O  0.26171468  0.94493624  0.20666581    -0.95100
O683        O  0.22568847  0.97066051  0.18937034    -0.93600
O684        O  0.12780297  0.86185675  0.25296583    -0.93900
O685        O  0.15751262  0.81759163  0.27344465    -0.92700
C686        C  0.25213605  0.97402550  0.20399554     1.16400
H687        H  0.10562991  0.85393391  0.18779358     0.32300
H688        H  0.19292643  0.79175453  0.22641561     0.43200
H689        H  0.25228804  0.93822841  0.14187760     0.36700
H690        H  0.15409193  0.77688408  0.11141461     0.33200
H691        H  0.09523267  0.74227166  0.26984172     0.25000
H692        H  0.18191289  0.69224804  0.15064767     0.30900
H693        H  0.23638322  0.80331777  0.09435876     0.36800
H694        H  0.11101818  0.86848929  0.24210293     0.31300
H695        H  0.16091823  0.97604509  0.18493522     0.30100
H696        H  0.20237480  0.96963568  0.10822645     0.31800
H697        H  0.25370093  0.93138706  0.06202898     0.30800
H698        H  0.18431338  0.83946268  0.27049759     0.34800
H699        H  0.26746694  0.87212107  0.24649431     0.27500
H700        H  0.05048278  0.76218537  0.10682002     0.31800
H701        H  0.16353674  0.83955261  0.06560450     0.34600
H702        H  0.12602901  0.92960976  0.19435212     0.27200
H703        H  0.30296255  0.89686339  0.22391785     0.40100
H704        H  0.12375999  0.67277513  0.19891292     0.30100
H705        H  0.09473587  0.72062279  0.24131363     0.37800
H706        H  0.26112239  0.95503311  0.09046994     0.29600
H707        H  0.18871277  0.72409937  0.12207413     0.29700
H708        H  0.08747790  0.78058354  0.08649945     0.29900
C709        C  0.45455282  0.96622712  0.08336153     0.85400
C710        C  0.46485735  0.97347580  0.04980922    -0.54800
C711        C  0.00228514  0.99487925  0.04151451     0.08300
C712        C  0.02434663  0.50728205  0.06817375     0.19300
C713        C  0.47429674  0.94296185  0.09578656    -0.55600
C714        C  0.01249585  0.96590310  0.08808709     0.08400
C715        C  0.47514190  0.51497994  0.09215053    -0.55100
C716        C  0.01037804  0.53340224  0.08429378     0.09000
H717        H  0.44454762  0.96065320  0.03398318     0.13500
H718        H  0.05447669  0.52593259  0.06147395    -0.00700
H719        H  0.45980034  0.91141777  0.10930915     0.13800
H720        H  0.46215040  0.52915833  0.10450690     0.13600
C721        C  0.39658063  0.70929857  0.25041463     0.85400
C722        C  0.37529399  0.66299632  0.24161680    -0.54800
C723        C  0.33833699  0.64096359  0.24961768     0.08300
C724        C  0.32565544  0.66824305  0.26550076     0.19300
C725        C  0.37753364  0.73266838  0.23690461    -0.55600
C726        C  0.34032557  0.71138963  0.24474311     0.08400
C727        C  0.38640239  0.70400795  0.28389529    -0.55100
C728        C  0.34918566  0.68197985  0.29192031     0.09000
H729        H  0.38876078  0.64912421  0.22955303     0.13500
H730        H  0.29556245  0.65080923  0.27222532    -0.00700
H731        H  0.39228241  0.76334269  0.22240069     0.13800
H732        H  0.40660155  0.71812377  0.29960137     0.13600
C733        C  0.35262657  0.93165712  0.08647554    -0.14400
C734        C  0.34137737  0.91657557  0.11657248     0.07700
C735        C  0.36649202  0.91518933  0.13525103    -0.14400
C736        C  0.40238670  0.92902136  0.12397806    -0.14400
C737        C  0.41383451  0.94395631  0.09372438     0.07700
C738        C  0.38850636  0.94579683  0.07526374    -0.14400
H739        H  0.33395968  0.93380481  0.07166358     0.11700
H740        H  0.35848612  0.90367387  0.15857922     0.11700
H741        H  0.42162266  0.92932817  0.13916846     0.11700
H742        H  0.39636378  0.95993780  0.05243915     0.11700
C743        C  0.08852475  0.63044383  0.11497403    -0.14400
C744        C  0.07425403  0.65827826  0.11762024     0.07700
C745        C  0.04013988  0.64642102  0.10662104    -0.14400
C746        C  0.02014997  0.60681175  0.09453251    -0.14400
C747        C  0.03386973  0.57822466  0.09303825     0.07700
C748        C  0.06865283  0.59108721  0.10274152    -0.14400
H749        H  0.11497854  0.63869305  0.12278404     0.11700
H750        H  0.02852963  0.66725558  0.10788998     0.11700
H751        H  0.99362899  0.59826593  0.08673764     0.11700
H752        H  0.07992544  0.56995760  0.10209213     0.11700
C753        C  0.04269854  0.88420717  0.11009602    -0.14400
C754        C  0.08003976  0.91202066  0.11441350     0.07700
C755        C  0.09550577  0.95759048  0.10833927    -0.14400
C756        C  0.07385512  0.97495931  0.09919978    -0.14400
C757        C  0.03608600  0.94731348  0.09626236     0.07700
C758        C  0.02096868  0.90163314  0.10121024    -0.14400
H759        H  0.02995106  0.84895935  0.11438015     0.11700
H760        H  0.12431289  0.98000762  0.11111405     0.11700
H761        H  0.08426725  0.50903912  0.09857154     0.11700
H762        H  0.99226387  0.87916510  0.09825167     0.11700
C763        C  0.25879165  0.71806813  0.21878430    -0.14400
C764        C  0.27258581  0.76346420  0.21585818     0.07700
C765        C  0.30874671  0.79159323  0.22302583    -0.14400
C766        C  0.33073063  0.77473590  0.23237709    -0.14400
C767        C  0.31693147  0.72936024  0.23506153     0.07700
C768        C  0.28065383  0.70128297  0.22841056    -0.14400
H769        H  0.23107691  0.69537133  0.21346438     0.11700
H770        H  0.32030020  0.82670834  0.22096803     0.11700
H771        H  0.35845680  0.79723780  0.23775162     0.11700
H772        H  0.26931716  0.66637608  0.22998628     0.11700
C773        C  0.25699483  0.54059810  0.22533716    -0.14400
C774        C  0.27245310  0.01442555  0.21858831     0.07700
C775        C  0.30708200  0.52668632  0.23051255    -0.14400
C776        C  0.32780538  0.56700057  0.24128798    -0.14400
C777        C  0.31393136  0.59534107  0.24301941     0.07700
C778        C  0.27773297  0.58085675  0.23615357    -0.14400
H779        H  0.22955962  0.53112018  0.21925672     0.11700
H780        H  0.31715839  0.00431763  0.22983795     0.11700
H781        H  0.35510916  0.57636417  0.24760512     0.11700
H782        H  0.26589609  0.60125540  0.23776220     0.11700
C783        C  0.48341400  0.75212919  0.19833677    -0.14400
C784        C  0.00897357  0.75740811  0.21819791     0.07700
C785        C  0.00109558  0.75784220  0.24836907    -0.14400
C786        C  0.46369226  0.73447370  0.25927279    -0.14400
C787        C  0.43715298  0.73025071  0.23985531     0.07700
C788        C  0.44758426  0.73916946  0.20921697    -0.14400
H789        H  0.98565854  0.74418322  0.17606355     0.11700
H790        H  0.02261988  0.76881266  0.26335915     0.11700
H791        H  0.45717092  0.72594963  0.28282561     0.11700
H792        H  0.42756564  0.73485849  0.19361187     0.11700
C793        C  0.35182383  0.67919152  0.34662007    -0.17500
C794        C  0.33218323  0.67193396  0.32288260    -0.32700
H795        H  0.38140310  0.69315829  0.34372076     0.11500
H796        H  0.30249417  0.65740236  0.32582446     0.12100
C797        C  0.19181270  0.61563806  0.43454651    -0.14400
C798        C  0.17060323  0.57050631  0.44464392     0.07700
C799        C  0.18839823  0.54632002  0.44571223    -0.14400
C800        C  0.22682205  0.56734172  0.43820350    -0.14400
C801        C  0.24845213  0.61320601  0.42960075     0.07700
C802        C  0.22981715  0.63638969  0.42678005    -0.14400
H803        H  0.17899287  0.63533570  0.43310902     0.11700
H804        H  0.17291798  0.51156993  0.45333175     0.11700
H805        H  0.23915763  0.54723364  0.43903389     0.11700
H806        H  0.24487105  0.67107799  0.41899818     0.11700
C807        C  0.43819039  0.81605290  0.42762607    -0.14400
C808        C  0.43461582  0.82181130  0.45741439     0.07700
C809        C  0.40368825  0.78827246  0.47566440    -0.14400
C810        C  0.37628890  0.75119714  0.46430234    -0.14400
C811        C  0.37901840  0.74608750  0.43433131     0.07700
C812        C  0.41076127  0.77841666  0.41625496    -0.14400
H813        H  0.95993715  0.84869452  0.41395027     0.11700
H814        H  0.39985185  0.79170534  0.49871395     0.11700
H815        H  0.35291786  0.72642723  0.47906293     0.11700
H816        H  0.41379566  0.77527503  0.39305395     0.11700
C817        C  0.37366334  0.61429674  0.46396768    -0.14400
C818        C  0.37359588  0.62393846  0.43350250     0.07700
C819        C  0.39987291  0.62408405  0.41379042    -0.14400
C820        C  0.42476068  0.61252881  0.42428190    -0.14400
C821        C  0.42429348  0.60163006  0.45475809     0.07700
C822        C  0.39900942  0.60352394  0.47455908    -0.14400
H823        H  0.35417003  0.61525823  0.47954404     0.11700
H824        H  0.40055263  0.63216071  0.39023795     0.11700
H825        H  0.44404907  0.61152441  0.40850472     0.11700
H826        H  0.39792176  0.59514439  0.49811314     0.11700
C827        C  0.29355445  0.94849782  0.56094386    -0.14400
C828        C  0.27195093  0.90266314  0.56987216     0.07700
C829        C  0.29070002  0.87969514  0.57333110    -0.14400
C830        C  0.32889693  0.90077390  0.56626277    -0.14400
C831        C  0.34997967  0.94585960  0.55585658     0.07700
C832        C  0.33196687  0.96966796  0.55388165    -0.14400
H833        H  0.28147530  0.96880454  0.55951235     0.11700
H834        H  0.27557923  0.84500139  0.58113239     0.11700
H835        H  0.34192393  0.88133233  0.56824540     0.11700
H836        H  0.34730186  0.00428336  0.54584388     0.11700
C837        C  0.08011884  0.70336800  0.56813941    -0.14400
C838        C  0.08371751  0.69719577  0.53847431     0.07700
C839        C  0.11481026  0.73051011  0.52018896    -0.14400
C840        C  0.14258563  0.76741598  0.53156623    -0.14400
C841        C  0.14001762  0.77253328  0.56157228     0.07700
C842        C  0.10791571  0.74064603  0.57951924    -0.14400
H843        H  0.05715443  0.67808328  0.58298074     0.11700
H844        H  0.11861531  0.72683803  0.49718739     0.11700
H845        H  0.16620527  0.79183677  0.51686712     0.11700
H846        H  0.10492934  0.74358843  0.60275695     0.11700
C847        C  0.12166663  0.89396836  0.58792894    -0.14400
C848        C  0.14891708  0.89635747  0.56813474     0.07700
C849        C  0.15103829  0.91054993  0.53809053    -0.14400
C850        C  0.12636948  0.92267083  0.52799752    -0.14400
C851        C  0.09950333  0.92126678  0.54789564     0.07700
C852        C  0.09738332  0.90681357  0.57796274    -0.14400
H853        H  0.11953822  0.88274644  0.61114103     0.11700
H854        H  0.17147858  0.91170439  0.52238034     0.11700
H855        H  0.12887730  0.93408470  0.50477513     0.11700
H856        H  0.07698492  0.90550936  0.59378802     0.11700
C857        C  0.99795987  0.48714283  0.98729425    -0.17500
C858        C  0.01877979  0.00330726  0.01056243    -0.32700
H859        H  0.96810619  0.46842238  0.98989985     0.11500
H860        H  0.54874844  0.02760003  0.00769344     0.12100
C861        C  0.18610088  0.82826905  0.67537822    -0.17500
C862        C  0.16725738  0.82776939  0.65194740    -0.32700
H863        H  0.21560439  0.84140740  0.67228764     0.11500
H864        H  0.13791711  0.81542650  0.65513441     0.12100
C865        C  0.42265941  0.85504028  0.88956816    -0.14400
C866        C  0.43722003  0.82772713  0.88569442     0.07700
C867        C  0.47201352  0.84005158  0.89536319    -0.14400
C868        C  0.49284523  0.88014625  0.90652348    -0.14400
C869        C  0.47950848  0.90904347  0.90816114     0.07700
C870        C  0.44356134  0.89518735  0.90072960    -0.14400
H871        H  0.39552101  0.84615120  0.88302700     0.11700
H872        H  0.48375366  0.81946499  0.89337394     0.11700
H873        H  0.01783431  0.88726074  0.91516854     0.11700
H874        H  0.43222528  0.91619974  0.90199644     0.11700
C875        C  0.14893609  0.56773297  0.86293530    -0.14400
C876        C  0.17519753  0.57154189  0.88230891     0.07700
C877        C  0.16532202  0.56329063  0.91289372    -0.14400
C878        C  0.12962109  0.55016502  0.92394041    -0.14400
C879        C  0.10285283  0.54549756  0.90462316     0.07700
C880        C  0.11319521  0.55481399  0.87398080    -0.14400
H881        H  0.15588698  0.57444279  0.83923548     0.11700
H882        H  0.18499125  0.56594521  0.92843231     0.11700
H883        H  0.12312223  0.03937037  0.94651219     0.11700
H884        H  0.09309897  0.55056205  0.85846889     0.11700
C885        C  0.42377752  0.53429645  0.88617688    -0.14400
C886        C  0.43911149  0.57987733  0.88053461     0.07700
C887        C  0.47593466  0.60778058  0.88621690    -0.14400
C888        C  0.49730784  0.59037934  0.89617296    -0.14400
C889        C  0.48228501  0.54468843  0.90078553     0.07700
C890        C  0.44504308  0.51697315  0.89633972    -0.14400
H891        H  0.39532555  0.51183626  0.88241285     0.11700
H892        H  0.48850256  0.64303946  0.88232314     0.11700
H893        H  0.02592780  0.61245121  0.89855242     0.11700
H894        H  0.43212412  0.98111037  0.90261811     0.11700
C895        C  0.20769570  0.69665090  0.77264787    -0.14400
C896        C  0.24347400  0.72442489  0.78066663     0.07700
C897        C  0.25765618  0.76988514  0.77758120    -0.14400
C898        C  0.23633896  0.78708925  0.76740542    -0.14400
C899        C  0.20017219  0.75937050  0.76039099     0.07700
C900        C  0.18624356  0.71393626  0.76271631    -0.14400
H901        H  0.19597057  0.66150515  0.77458484     0.11700
H902        H  0.28521236  0.79233532  0.78333860     0.11700
H903        H  0.24799446  0.82202938  0.76584627     0.11700
H904        H  0.15871384  0.69165381  0.75686232     0.11700
C905        C  0.03368936  0.73575791  0.80002681    -0.14400
C906        C  0.50595478  0.72637032  0.78010717     0.07700
C907        C  0.01580709  0.73370406  0.75008413    -0.14400
C908        C  0.05156888  0.74712994  0.73895955    -0.14400
C909        C  0.07929662  0.75622399  0.75818606     0.07700
C910        C  0.06946754  0.74888072  0.78891382    -0.14400
H911        H  0.52683869  0.73089280  0.82323185     0.11700
H912        H  0.99545494  0.72804722  0.73452580     0.11700
H913        H  0.05691920  0.75162382  0.71528914     0.11700
H914        H  0.09013220  0.75546652  0.80433838     0.11700
C915        C  0.25572702  0.94424135  0.78166431    -0.14400
C916        C  0.24103976  0.97164901  0.78448068     0.07700
C917        C  0.20654100  0.95918741  0.77421323    -0.14400
C918        C  0.18668371  0.91956549  0.76234363    -0.14400
C919        C  0.20080927  0.89147228  0.76058714     0.07700
C920        C  0.23589757  0.90475217  0.76969377    -0.14400
H921        H  0.28465207  0.45691158  0.78504133     0.11700
H922        H  0.19467377  0.97972458  0.77567242     0.11700
H923        H  0.15999784  0.91071379  0.75478364     0.11700
H924        H  0.24756838  0.88410954  0.76858239     0.11700
Zr925      Zr  0.77690732  0.11812792  0.80834518     2.17500
O926        O  0.74505533  0.10652485  0.76341194    -0.52400
O927        O  0.72162175  0.08922173  0.84185534    -0.75600
O928        O  0.75025396  0.04270980  0.79631670    -0.82400
O929        O  0.79923268  0.23641473  0.80154160    -0.84200
O930        O  0.78883706  0.01937295  0.81082639    -0.79800
O931        O  0.75580156  0.16810997  0.79240522    -0.91400
O932        O  0.73895145  0.09983132  0.88844776    -0.77400
O933        O  0.78767127  0.08234472  0.85000338    -0.86900
O934        O  0.79329245  0.16533272  0.84611324    -0.86600
O935        O  0.82709338  0.10957287  0.79134406    -0.73300
O936        O  0.83064236  0.18604622  0.78779248    -0.85500
Zr937      Zr  0.90915635  0.18935825  0.85196050     2.26400
Zr938      Zr  0.83878998  0.07561338  0.83385581     2.06300
Zr939      Zr  0.84716641  0.23218224  0.82633116     2.10000
Zr940      Zr  0.80467579  0.13006037  0.88736549     1.78800
O941        O  0.88108577  0.29674109  0.79002418    -0.94300
O942        O  0.78014051  0.05925300  0.91684893    -0.42100
O943        O  0.85881040  0.19778218  0.86842318    -0.78700
O944        O  0.85540364  0.12154499  0.87279817    -0.97400
O945        O  0.89300451  0.14246050  0.81402349    -0.90700
O946        O  0.89832596  0.22535666  0.81026693    -0.93500
C947        C  0.71468934  0.08786543  0.86969462     1.00200
C948        C  0.76844791  0.20945022  0.79200219     1.13200
C949        C  0.76026446  0.01406749  0.79856586     1.03900
O950        O  0.80857594  0.01289728  0.87187309    -0.95700
O951        O  0.88752886  0.07027677  0.85607548    -0.91400
O952        O  0.92973065  0.13806276  0.86704826    -0.84600
C953        C  0.91787620  0.09704449  0.86626988     1.10600
O954        O  0.85769235  0.17285251  0.72448985    -0.97700
Zr955      Zr  0.88120100  0.17742257  0.77287192     1.88900
O956        O  0.96418600  0.21755527  0.81823566    -0.74300
O957        O  0.86245687  0.04060577  0.80342866    -0.53600
O958        O  0.88832602  0.12817425  0.74312768    -0.98200
O959        O  0.91111990  0.24748272  0.74156701    -0.55500
O960        O  0.94559726  0.20075195  0.77259203    -0.74800
C961        C  0.97029573  0.21498060  0.79090869     0.97500
O962        O  0.94570976  0.21003125  0.89436117    -0.63600
O963        O  0.82194878  0.26700818  0.85542280    -0.58400
O964        O  0.93152127  0.26183583  0.86849449    -0.95100
O965        O  0.89248265  0.28482439  0.85448522    -0.93600
O966        O  0.78998242  0.17441194  0.91635959    -0.93900
O967        O  0.82905927  0.14008412  0.93554686    -0.92700
C968        C  0.92036044  0.28948273  0.86758751     1.16400
H969        H  0.77397190  0.17099693  0.85131844     0.32300
H970        H  0.86105312  0.10862689  0.88976118     0.43200
H971        H  0.91986871  0.25358224  0.80375918     0.36700
H972        H  0.82011100  0.09123301  0.77553145     0.33200
H973        H  0.76235558  0.05821503  0.93213957     0.25000
H974        H  0.84937280  0.00953210  0.81216773     0.30900
H975        H  0.90013677  0.11574466  0.75575594     0.36800
H976        H  0.80552355  0.20464342  0.90631217     0.31300
H977        H  0.82581779  0.29273014  0.84220335     0.30100
H978        H  0.86567197  0.31032946  0.78911681     0.31800
H979        H  0.93526680  0.26565754  0.74940906     0.30800
H980        H  0.85589501  0.16110462  0.93110036     0.34800
H981        H  0.93338666  0.18392847  0.90935505     0.27500
H982        H  0.72008875  0.08050623  0.76878058     0.31800
H983        H  0.83953341  0.18245494  0.72640130     0.34600
H984        H  0.79483971  0.24676684  0.85771441     0.27200
H985        H  0.96953062  0.21280138  0.88786949     0.40100
H986        H  0.80331433  0.98736628  0.86143176     0.30100
H987        H  0.76445737  0.03738648  0.90382576     0.37800
H988        H  0.89661981  0.26116522  0.74660680     0.29600
H989        H  0.85239436  0.04010538  0.78408462     0.29700
H990        H  0.75766196  0.09690241  0.74985904     0.29900
C991        C  0.62069892  0.28020269  0.74901687     0.85400
C992        C  0.63157699  0.28898537  0.71540064    -0.54800
C993        C  0.66889839  0.31289606  0.70782450     0.08300
C994        C  0.69185534  0.32442836  0.73458881     0.19300
C995        C  0.64051280  0.25714559  0.76113080    -0.55600
C996        C  0.67779738  0.27987651  0.75352205     0.08400
C997        C  0.64073674  0.32539237  0.75971116    -0.55100
C998        C  0.67777698  0.34908322  0.75210418     0.09000
H999        H  0.61206503  0.27671458  0.69900942     0.13500
H1000       H  0.72201595  0.34315400  0.72806668    -0.00700
H1001       H  0.62613657  0.22559304  0.77467626     0.13800
H1002       H  0.62630767  0.33726511  0.77268989     0.13600
C1003       C  0.56304135  0.02330359  0.91480748     0.85400
C1004       C  0.54078391  0.47774207  0.90578125    -0.54800
C1005       C  0.00429829  0.45543897  0.91378957     0.08300
C1006       C  0.99123906  0.48219809  0.93004425     0.19300
C1007       C  0.54377307  0.04617006  0.90098594    -0.55600
C1008       C  0.00620836  0.02473887  0.90836800     0.08400
C1009       C  0.55338237  0.01861022  0.94839412    -0.55100
C1010       C  0.51632798  0.99747922  0.95665364     0.09000
H1011       H  0.55424623  0.46395937  0.89360702     0.13500
H1012       H  0.96112433  0.46415971  0.93675498    -0.00700
H1013       H  0.55856859  0.07610841  0.88578951     0.13800
H1014       H  0.57343929  0.03006915  0.96439911     0.13600
Zr1015     Zr  0.97925671  0.05324340  0.52501943     2.17500
O1016       O  0.95717342  0.07820147  0.56480866    -0.52400
O1017       O  0.95295198  0.08475984  0.49161721    -0.75600
O1018       O  0.52791280  0.12746434  0.53687976    -0.82400
O1019       O  0.89483140  0.43272501  0.53507818    -0.84200
O1020       O  0.58262588  0.14403097  0.51329384    -0.79800
O1021       O  0.91332116  0.50232047  0.54428191    -0.91400
O1022       O  0.95852087  0.06849556  0.44525988    -0.77400
O1023       O  0.52232876  0.08396836  0.48032518    -0.86900
O1024       O  0.95246643  0.50282801  0.48900640    -0.86600
O1025       O  0.53423687  0.05303229  0.53740593    -0.75700
O1026       O  0.97038496  0.47971975  0.54514936    -0.85500
Zr1027     Zr  0.54191324  0.46661245  0.47866793     2.26400
Zr1028     Zr  0.57545530  0.08129456  0.49301699     2.06300
Zr1029     Zr  0.94430773  0.43374145  0.50714804     2.10000
Zr1030     Zr  0.99417111  0.03297251  0.44522412     1.78800
O1031       O  0.91643508  0.37004429  0.54443069    -0.94300
O1032       O  0.53682291  0.10918936  0.41485334    -0.42100
O1033       O  0.98471004  0.46325711  0.46261096    -0.78700
O1034       O  0.55016503  0.03627662  0.45430951    -0.97400
O1035       O  0.56605836  0.01177475  0.51162070    -0.90700
O1036       O  0.50225943  0.43832768  0.52374994    -0.93500
C1037       C  0.94687292  0.08433496  0.46419936     1.00200
C1038       C  0.88881526  0.46102603  0.54522138     1.13200
C1039       C  0.56303523  0.15346492  0.52950047     1.03900
O1040       O  0.60346999  0.14256422  0.45384120    -0.95700
O1041       O  0.62589230  0.08121419  0.46764983    -0.91400
O1042       O  0.60658320  0.01272638  0.45568093    -0.84600
C1043       C  0.63165678  0.05355499  0.45613547     1.10600
O1044       O  0.51791492  0.50799529  0.60633954    -0.97700
Zr1045     Zr  0.52992457  0.48939458  0.55857537     1.88900
O1046       O  0.56948313  0.43644479  0.51163449    -0.74300
O1047       O  0.62774620  0.10792714  0.52302447    -0.53600
O1048       O  0.57707862  0.02851551  0.58062859    -0.98200
O1049       O  0.98965296  0.41161042  0.58793192    -0.55500
O1050       O  0.56507327  0.45331714  0.55809274    -0.74800
C1051       C  0.57617654  0.43723628  0.53891943     0.97500
O1052       O  0.55670079  0.43770948  0.43707846    -0.63600
O1053       O  0.89235607  0.40516953  0.47676046    -0.58400
O1054       O  0.49350356  0.39299757  0.46565294    -0.95100
O1055       O  0.93711966  0.37247484  0.48467970    -0.93600
O1056       O  0.94021302  0.49231729  0.41845787    -0.93900
O1057       O  0.51344379  0.03397352  0.39210968    -0.92700
C1058       C  0.95705544  0.36365772  0.46835066     1.16400
H1059       H  0.92876983  0.49922859  0.48536569     0.32300
H1060       H  0.56732769  0.04791721  0.43681716     0.43200
H1061       H  0.99305856  0.40394382  0.52523877     0.36700
H1062       H  0.54521547  0.07147750  0.55283241     0.33200
H1063       H  0.52187163  0.11212571  0.39958181     0.25000
H1064       H  0.64651091  0.13698524  0.51268092     0.30900
H1065       H  0.60685855  0.54269078  0.56552274     0.36800
H1066       H  0.93868374  0.00286155  0.40462141     0.31300
H1067       H  0.87150509  0.38070589  0.48970441     0.30100
H1068       H  0.89011243  0.35308026  0.54054260     0.31800
H1069       H  0.49098679  0.39925863  0.58375122     0.30800
H1070       H  0.52532541  0.01618464  0.39397072     0.34800
H1071       H  0.56697709  0.46188311  0.42066118     0.27500
H1072       H  0.96215934  0.10758264  0.55692889     0.31800
H1073       H  0.52677551  0.49418851  0.62100646     0.34600
H1074       H  0.88563698  0.42799385  0.47418080     0.27200
H1075       H  0.57790170  0.43479219  0.44254253     0.40100
H1076       H  0.62903912  0.16166394  0.45895830     0.30100
H1077       H  0.53959838  0.13074350  0.42840443     0.37800
H1078       H  0.96367380  0.40133005  0.58429062     0.29600
H1079       H  0.61943342  0.11441707  0.54149960     0.29700
H1080       H  0.97434578  0.08357060  0.58033330     0.29900
C1081       C  0.78993693  0.13817488  0.41959247     0.85400
C1082       C  0.79837902  0.14747694  0.38588063    -0.54800
C1083       C  0.83510841  0.16897127  0.37651827     0.08300
C1084       C  0.86031815  0.17930522  0.40186171     0.19300
C1085       C  0.80956685  0.11370473  0.43012240    -0.55600
C1086       C  0.84637256  0.13547610  0.42093004     0.08400
C1087       C  0.81329567  0.18356264  0.43104413    -0.55100
C1088       C  0.85041341  0.20506486  0.42172503     0.09000
H1089       H  0.77670963  0.13771236  0.37104357     0.13500
H1090       H  0.89024473  0.19637326  0.39442465    -0.00700
H1091       H  0.79659108  0.08359712  0.44516181     0.13800
H1092       H  0.80180611  0.19642034  0.44619383     0.13600
C1093       C  0.73025158  0.37737460  0.58000170     0.85400
C1094       C  0.70715603  0.33291333  0.56745181    -0.54800
C1095       C  0.66987312  0.31113755  0.57644198     0.08300
C1096       C  0.65961226  0.33560222  0.59722073     0.19300
C1097       C  0.71066605  0.40243992  0.57069573    -0.55600
C1098       C  0.67388227  0.38038856  0.57958995     0.08400
C1099       C  0.72115362  0.36594992  0.61371155    -0.55100
C1100       C  0.68422052  0.34378276  0.62268575     0.09000
H1101       H  0.71912484  0.32069856  0.55220107     0.13500
H1102       H  0.62964523  0.31851899  0.60442735    -0.00700
H1103       H  0.72327780  0.43356278  0.55696459     0.13800
H1104       H  0.74247030  0.37493780  0.62882955     0.13600
Zr1105     Zr  0.61001952  0.30496058  0.14368723     2.17500
O1106       O  0.57779408  0.29263598  0.09890568    -0.52400
O1107       O  0.55503741  0.27549514  0.17781180    -0.75600
O1108       O  0.58546880  0.22976725  0.13070611    -0.82400
O1109       O  0.62980859  0.42146497  0.13751706    -0.84200
O1110       O  0.62473773  0.20729137  0.14492829    -0.79800
O1111       O  0.58737039  0.35319653  0.12743603    -0.91400
O1112       O  0.57251056  0.28565403  0.22440536    -0.77400
O1113       O  0.62166803  0.26945078  0.18493473    -0.86900
O1114       O  0.62593264  0.35193400  0.18185297    -0.86600
O1115       O  0.66134346  0.29911839  0.12599381    -0.73300
O1116       O  0.66287110  0.37414120  0.12340576    -0.85500
Zr1117     Zr  0.74222676  0.37817912  0.18747085     2.26400
Zr1118     Zr  0.67370637  0.26490860  0.16798318     2.06300
Zr1119     Zr  0.67909917  0.41978092  0.16226504     2.10000
Zr1120     Zr  0.63811998  0.31662901  0.22272648     1.78800
O1121       O  0.71350686  0.48425220  0.12594869    -0.94300
O1122       O  0.61647746  0.24596997  0.25153177    -0.42100
O1123       O  0.69122564  0.38534677  0.20412340    -0.78700
O1124       O  0.68928713  0.30943619  0.20774336    -0.97400
O1125       O  0.72699873  0.33288689  0.14870965    -0.90700
O1126       O  0.73117625  0.41477998  0.14630280    -0.93500
C1127       C  0.54818605  0.27352547  0.20576154     1.00200
C1128       C  0.59943753  0.39433718  0.12738392     1.13200
C1129       C  0.59601415  0.20150508  0.13266119     1.03900
O1130       O  0.64508423  0.20045478  0.20466007    -0.95700
O1131       O  0.72257044  0.26037789  0.19057532    -0.91400
O1132       O  0.76294095  0.32731283  0.20395085    -0.84600
C1133       C  0.75196582  0.28669925  0.20209290     1.10600
O1134       O  0.69462255  0.37232614  0.05909309    -0.97700
Zr1135     Zr  0.71474938  0.36841707  0.10811109     1.88900
O1136       O  0.79665329  0.40566130  0.15335413    -0.74300
O1137       O  0.70168711  0.23706962  0.13517888    -0.53600
O1138       O  0.72204573  0.32385184  0.07393670    -0.98200
O1139       O  0.74825277  0.44384179  0.08430629    -0.55500
O1140       O  0.77799188  0.38754388  0.10794822    -0.74800
C1141       C  0.80260515  0.40181156  0.12630218     0.97500
O1142       O  0.78176484  0.40357638  0.22781846    -0.63600
O1143       O  0.65606950  0.45818308  0.18974282    -0.58400
O1144       O  0.76336474  0.44965197  0.20488158    -0.95100
O1145       O  0.72368986  0.47186569  0.19135754    -0.93600
O1146       O  0.62162768  0.35656246  0.25470866    -0.93900
O1147       O  0.66340361  0.32784436  0.27054435    -0.92700
C1148       C  0.75175803  0.47681119  0.20433290     1.16400
H1149       H  0.60633940  0.35712123  0.18728062     0.32300
H1150       H  0.69497557  0.29632742  0.22459591     0.43200
H1151       H  0.75264663  0.44334378  0.14032804     0.36700
H1152       H  0.65476878  0.28116615  0.10997974     0.33200
H1153       H  0.59903268  0.24403041  0.26753280     0.25000
H1154       H  0.69170202  0.20624228  0.14354601     0.30900
H1155       H  0.73233634  0.30843062  0.08547715     0.36800
H1156       H  0.62902408  0.38451429  0.24251043     0.31300
H1157       H  0.65630866  0.48032896  0.17498258     0.30100
H1158       H  0.70477284  0.50418092  0.13088145     0.31800
H1159       H  0.72892239  0.45052136  0.07917865     0.30800
H1160       H  0.69050577  0.34341055  0.26574886     0.34800
H1161       H  0.76979085  0.37929633  0.24416627     0.27500
H1162       H  0.55296658  0.26643437  0.10442348     0.31800
H1163       H  0.66744287  0.35821336  0.06245375     0.34600
H1164       H  0.62955498  0.43657904  0.19529742     0.27200
H1165       H  0.80481265  0.40462148  0.22115618     0.40100
H1166       H  0.64469923  0.17695749  0.19428465     0.30100
H1167       H  0.60058570  0.22390882  0.23869861     0.37800
H1168       H  0.75929471  0.44277931  0.06508575     0.29600
H1169       H  0.69008148  0.23508059  0.11643353     0.29700
H1170       H  0.59046801  0.28317246  0.08528968     0.29900
C1171       C  0.95334169  0.46365318  0.08308874     0.85400
C1172       C  0.96362494  0.46922933  0.04969087    -0.54800
C1173       C  0.50038832  0.49571629  0.04142992     0.08300
C1174       C  0.52557191  0.00934762  0.06854614     0.19300
C1175       C  0.97359257  0.44189860  0.09671453    -0.55600
C1176       C  0.50994114  0.46613756  0.08795233     0.08400
C1177       C  0.97674995  0.01389013  0.09205195    -0.55100
C1178       C  0.51189936  0.03485289  0.08580722     0.09000
H1179       H  0.94374129  0.45511104  0.03383845     0.13500
H1180       H  0.55572437  0.02800428  0.06194604    -0.00700
H1181       H  0.95936873  0.41114019  0.11114508     0.13800
H1182       H  0.96345210  0.02787716  0.10422049     0.13600
C1183       C  0.89587508  0.21012878  0.24924415     0.85400
C1184       C  0.87478196  0.16383372  0.24056556    -0.54800
C1185       C  0.83780971  0.14204749  0.24793344     0.08300
C1186       C  0.82480882  0.16931101  0.26361100     0.19300
C1187       C  0.87715394  0.23354523  0.23522389    -0.55600
C1188       C  0.83987509  0.21271842  0.24279968     0.08400
C1189       C  0.88527521  0.20505093  0.28257613    -0.55100
C1190       C  0.84801376  0.18297142  0.29037039     0.09000
H1191       H  0.88832636  0.14970583  0.22887235     0.13500
H1192       H  0.79462377  0.15161190  0.26999082    -0.00700
H1193       H  0.89232882  0.26406922  0.22062450     0.13800
H1194       H  0.90533743  0.21869381  0.29839049     0.13600
C1195       C  0.84921199  0.41739685  0.08503385    -0.14400
C1196       C  0.84014843  0.41400512  0.11541058     0.07700
C1197       C  0.86703975  0.42176481  0.13507631    -0.14400
C1198       C  0.90285534  0.43471726  0.12433827    -0.14400
C1199       C  0.91266969  0.44061470  0.09373598     0.07700
C1200       C  0.88496130  0.43053721  0.07427607    -0.14400
H1201       H  0.82892009  0.41120100  0.06931861     0.11700
H1202       H  0.86062477  0.41857891  0.15870206     0.11700
H1203       H  0.92352018  0.44230334  0.13989353     0.11700
H1204       H  0.89028091  0.43451142  0.05063590     0.11700
C1205       C  0.58864243  0.13117027  0.11827075    -0.14400
C1206       C  0.57480796  0.15972775  0.11940509     0.07700
C1207       C  0.54134288  0.14808586  0.10731195    -0.14400
C1208       C  0.52178947  0.10840460  0.09524352    -0.14400
C1209       C  0.53524717  0.07945458  0.09486973     0.07700
C1210       C  0.56917898  0.09168659  0.10604847    -0.14400
H1211       H  0.61452501  0.13907401  0.12709672     0.11700
H1212       H  0.53002488  0.16932517  0.10748183     0.11700
H1213       H  0.49578806  0.10007939  0.08647610     0.11700
H1214       H  0.58003590  0.07004190  0.10643639     0.11700
C1215       C  0.54007261  0.38431835  0.10952720    -0.14400
C1216       C  0.57688685  0.41215376  0.11537843     0.07700
C1217       C  0.59182223  0.45773839  0.11073329    -0.14400
C1218       C  0.57037340  0.47506982  0.10116341    -0.14400
C1219       C  0.53320535  0.44741562  0.09653835     0.07700
C1220       C  0.51842384  0.40176764  0.10033032    -0.14400
H1221       H  0.52773704  0.34906439  0.11265066     0.11700
H1222       H  0.62017063  0.48025460  0.11472229     0.11700
H1223       H  0.58469471  0.01003396  0.09819383     0.11700
H1224       H  0.49012671  0.37945865  0.09612757     0.11700
C1225       C  0.75875634  0.22257467  0.21883835    -0.14400
C1226       C  0.77431959  0.26830834  0.21369703     0.07700
C1227       C  0.81148602  0.29565282  0.21866165    -0.14400
C1228       C  0.83265699  0.27764386  0.22811000    -0.14400
C1229       C  0.81713258  0.23184232  0.23302831     0.07700
C1230       C  0.77980425  0.20463686  0.22856105    -0.14400
H1231       H  0.73015195  0.20044092  0.21529524     0.11700
H1232       H  0.82438066  0.33095518  0.21481848     0.11700
H1233       H  0.86114884  0.29976561  0.23186863     0.11700
H1234       H  0.76686347  0.16942164  0.23201879     0.11700
C1235       C  0.76018273  0.04486180  0.21774986    -0.14400
C1236       C  0.77157036  0.51673634  0.21950028     0.07700
C1237       C  0.80722494  0.02765546  0.22935473    -0.14400
C1238       C  0.82695139  0.06756701  0.24092024    -0.14400
C1239       C  0.81391217  0.09695841  0.24030777     0.07700
C1240       C  0.77990905  0.08467693  0.22933759    -0.14400
H1241       H  0.73439406  0.03698384  0.20875349     0.11700
H1242       H  0.81051713  0.50089485  0.23800960     0.11700
H1243       H  0.85290297  0.07588585  0.24978032     0.11700
H1244       H  0.76934272  0.10662460  0.22839524     0.11700
C1245       C  0.98224520  0.24898403  0.19786644    -0.14400
C1246       C  0.50992085  0.25737083  0.21749069     0.07700
C1247       C  0.50064823  0.25006078  0.24816130    -0.14400
C1248       C  0.96262910  0.23453661  0.25874311    -0.14400
C1249       C  0.93643243  0.23055306  0.23903673     0.07700
C1250       C  0.94688827  0.23815018  0.20844553    -0.14400
H1251       H  0.48900974  0.25616630  0.17462374     0.11700
H1252       H  0.52106884  0.25502301  0.26352001     0.11700
H1253       H  0.95614219  0.22725398  0.28233975     0.11700
H1254       H  0.92709891  0.23403777  0.19266241     0.11700
C1255       C  0.85089504  0.18181807  0.34519261    -0.17500
C1256       C  0.83094490  0.17163772  0.32148405    -0.32700
H1257       H  0.88072050  0.19987451  0.34224702     0.11500
H1258       H  0.80104549  0.15317118  0.32457973     0.12100
C1259       C  0.69206193  0.11750314  0.43402718    -0.14400
C1260       C  0.67042234  0.07207807  0.44316576     0.07700
C1261       C  0.68765418  0.04729817  0.44280187    -0.14400
C1262       C  0.72603313  0.06806709  0.43527262    -0.14400
C1263       C  0.74814635  0.11421772  0.42832042     0.07700
C1264       C  0.73004564  0.13804091  0.42646865    -0.14400
H1265       H  0.67965478  0.13765222  0.43330374     0.11700
H1266       H  0.67179445  0.01224572  0.44930361     0.11700
H1267       H  0.73803485  0.04763838  0.43487576     0.11700
H1268       H  0.74546167  0.17299265  0.41956708     0.11700
C1269       C  0.93858967  0.31538667  0.42688106    -0.14400
C1270       C  0.93553188  0.32031367  0.45693531     0.07700
C1271       C  0.90522543  0.28602351  0.47528595    -0.14400
C1272       C  0.87767003  0.24923212  0.46379396    -0.14400
C1273       C  0.87966145  0.24513598  0.43357978     0.07700
C1274       C  0.91103903  0.27794159  0.41537736    -0.14400
H1275       H  0.46353280  0.34522478  0.41724244     0.11700
H1276       H  0.90190162  0.28872117  0.49855826     0.11700
H1277       H  0.85466152  0.22395394  0.47861558     0.11700
H1278       H  0.91357856  0.27538952  0.39200719     0.11700
C1279       C  0.87093862  0.11087242  0.46263847    -0.14400
C1280       C  0.87203022  0.12239839  0.43223611     0.07700
C1281       C  0.89935102  0.12429561  0.41278488    -0.14400
C1282       C  0.92449281  0.11328268  0.42336094    -0.14400
C1283       C  0.92317612  0.10098646  0.45370252     0.07700
C1284       C  0.89649998  0.10051552  0.47333850    -0.14400
H1285       H  0.85055217  0.11029162  0.47809840     0.11700
H1286       H  0.90081898  0.13358752  0.38931339     0.11700
H1287       H  0.94474976  0.11392858  0.40772741     0.11700
H1288       H  0.89464873  0.09081840  0.49679539     0.11700
C1289       C  0.79326064  0.44515989  0.55760504    -0.14400
C1290       C  0.77218930  0.40127498  0.57131580     0.07700
C1291       C  0.79132381  0.37955105  0.57861018    -0.14400
C1292       C  0.82953456  0.40008216  0.57167156    -0.14400
C1293       C  0.85011036  0.44332009  0.55747101     0.07700
C1294       C  0.83161003  0.46576928  0.55083432    -0.14400
H1295       H  0.78097082  0.46445857  0.55182710     0.11700
H1296       H  0.77648587  0.34624889  0.58951005     0.11700
H1297       H  0.84299368  0.38167575  0.57683969     0.11700
H1298       H  0.84655283  0.49868710  0.53929206     0.11700
C1299       C  0.58028468  0.20302914  0.57007613    -0.14400
C1300       C  0.58495626  0.19687054  0.54056831     0.07700
C1301       C  0.61685097  0.22960988  0.52287366    -0.14400
C1302       C  0.64440961  0.26594692  0.53462303    -0.14400
C1303       C  0.64078467  0.27125711  0.56439707     0.07700
C1304       C  0.60791859  0.24000327  0.58184054    -0.14400
H1305       H  0.55652417  0.17814840  0.58444420     0.11700
H1306       H  0.62136794  0.22598889  0.49999175     0.11700
H1307       H  0.66860497  0.28995859  0.52028979     0.11700
H1308       H  0.60413435  0.24323638  0.60491205     0.11700
C1309       C  0.62099725  0.39158740  0.58881240    -0.14400
C1310       C  0.64884735  0.39494839  0.56919089     0.07700
C1311       C  0.65160233  0.41022544  0.53926726    -0.14400
C1312       C  0.62699904  0.42245131  0.52916016    -0.14400
C1313       C  0.59960040  0.42009443  0.54892938     0.07700
C1314       C  0.59679036  0.40454948  0.57883553    -0.14400
H1315       H  0.61839570  0.37964537  0.61193403     0.11700
H1316       H  0.67251948  0.41222459  0.52365553     0.11700
H1317       H  0.63001852  0.43482896  0.50607630     0.11700
H1318       H  0.57593706  0.40255953  0.59450936     0.11700
C1319       C  0.49973276  0.98822173  0.98768111    -0.17500
C1320       C  0.51719067  0.50390747  0.01059010    -0.32700
H1321       H  0.47013110  0.96616965  0.99092250     0.11500
H1322       H  0.04743867  0.52015326  0.00824219     0.12100
C1323       C  0.68646296  0.32817439  0.67695863    -0.17500
C1324       C  0.66763168  0.32807788  0.65368884    -0.32700
H1325       H  0.71593092  0.34109530  0.67381458     0.11500
H1326       H  0.63831219  0.31589955  0.65696516     0.12100
C1327       C  0.92608983  0.35774360  0.88417856    -0.14400
C1328       C  0.94034224  0.32970131  0.88247181     0.07700
C1329       C  0.97384196  0.34126129  0.89442594    -0.14400
C1330       C  0.99360143  0.38109767  0.90616392    -0.14400
C1331       C  0.98032748  0.41022793  0.90617041     0.07700
C1332       C  0.94583245  0.39746553  0.89595673    -0.14400
H1333       H  0.90000166  0.34963031  0.87566343     0.11700
H1334       H  0.98531845  0.32020619  0.89395214     0.11700
H1335       H  0.52018668  0.39046015  0.91254655     0.11700
H1336       H  0.93491315  0.41905099  0.89563831     0.11700
C1337       C  0.64849750  0.06152933  0.86185605    -0.14400
C1338       C  0.67646869  0.07302776  0.88103424     0.07700
C1339       C  0.66803362  0.07224351  0.91123255    -0.14400
C1340       C  0.63220374  0.05864944  0.92229565    -0.14400
C1341       C  0.60357173  0.04494821  0.90344692     0.07700
C1342       C  0.61256125  0.04788674  0.87292916    -0.14400
H1343       H  0.65422105  0.06263873  0.83834373     0.11700
H1344       H  0.68911901  0.08183756  0.92657158     0.11700
H1345       H  0.62662621  0.56115706  0.94530678     0.11700
H1346       H  0.59129019  0.03802614  0.85773853     0.11700
C1347       C  0.92478335  0.03334211  0.88397264    -0.14400
C1348       C  0.94042737  0.07894313  0.87775137     0.07700
C1349       C  0.97778032  0.10663290  0.88205454    -0.14400
C1350       C  0.99902383  0.08908391  0.89206454    -0.14400
C1351       C  0.98339883  0.04341625  0.89813331     0.07700
C1352       C  0.94593166  0.01588337  0.89424570    -0.14400
H1353       H  0.89603703  0.01097742  0.88097846     0.11700
H1354       H  0.99072414  0.14186512  0.87739964     0.11700
H1355       H  0.52790483  0.11192797  0.89380702     0.11700
H1356       H  0.93187730  0.48139194  0.90083163     0.11700
C1357       C  0.70990842  0.19967490  0.77296869    -0.14400
C1358       C  0.74593010  0.22752690  0.78043590     0.07700
C1359       C  0.75977827  0.27296617  0.77796848    -0.14400
C1360       C  0.73792274  0.28999369  0.76877523    -0.14400
C1361       C  0.70166481  0.26206470  0.76202524     0.07700
C1362       C  0.68803347  0.21674896  0.76390107    -0.14400
H1363       H  0.69835684  0.16458350  0.77455044     0.11700
H1364       H  0.78741421  0.29548341  0.78353699     0.11700
H1365       H  0.74914779  0.32489088  0.76776758     0.11700
H1366       H  0.66040666  0.19437384  0.75827935     0.11700
C1367       C  0.53431354  0.23695135  0.80140708    -0.14400
C1368       C  0.00818012  0.22889148  0.77946911     0.07700
C1369       C  0.51717886  0.23746587  0.75135179    -0.14400
C1370       C  0.55271607  0.24995181  0.74035941    -0.14400
C1371       C  0.57999994  0.25723083  0.75970027     0.07700
C1372       C  0.56994195  0.24927695  0.79040793    -0.14400
H1373       H  0.02796537  0.22702027  0.82246032     0.11700
H1374       H  0.49720309  0.23315745  0.73570429     0.11700
H1375       H  0.55835924  0.25559922  0.71669571     0.11700
H1376       H  0.59032704  0.25479363  0.80591525     0.11700
C1377       C  0.75762821  0.45005699  0.77721837    -0.14400
C1378       C  0.74108671  0.47460083  0.78338305     0.07700
C1379       C  0.70510287  0.46006749  0.77593242    -0.14400
C1380       C  0.68525795  0.42037181  0.76424965    -0.14400
C1381       C  0.70086832  0.39418756  0.76009734     0.07700
C1382       C  0.73774407  0.41032468  0.76560484    -0.14400
H1383       H  0.77823260  0.95145312  0.79321880     0.11700
H1384       H  0.69196734  0.47875878  0.77981232     0.11700
H1385       H  0.65739904  0.40996185  0.75895755     0.11700
H1386       H  0.75087099  0.39159958  0.76224392     0.11700
Zr1387     Zr  0.77567927  0.61790937  0.80863843     2.17500
O1388       O  0.74080731  0.60296642  0.76519427    -0.52400
O1389       O  0.72010601  0.58906548  0.84182888    -0.75600
O1390       O  0.75158905  0.54348394  0.79545446    -0.82400
O1391       O  0.79689591  0.73592333  0.80276997    -0.84200
O1392       O  0.78960382  0.51949165  0.81049830    -0.79800
O1393       O  0.75569736  0.66835209  0.79078136    -0.91400
O1394       O  0.73727075  0.60100652  0.88832982    -0.77400
O1395       O  0.78618638  0.58173278  0.85024750    -0.86900
O1396       O  0.79113761  0.66471556  0.84668749    -0.86600
O1397       O  0.82654777  0.61030750  0.79198985    -0.73300
O1398       O  0.82900765  0.68642056  0.78840659    -0.85500
Zr1399     Zr  0.90704636  0.68902139  0.85303363     2.26400
Zr1400     Zr  0.83790699  0.57575808  0.83440656     2.06300
Zr1401     Zr  0.84504976  0.73186357  0.82729336     2.10000
Zr1402     Zr  0.80244275  0.62900056  0.88787431     1.78800
O1403       O  0.87818752  0.79554435  0.79018519    -0.94300
O1404       O  0.77602000  0.55748660  0.91686487    -0.42100
O1405       O  0.85633820  0.69681214  0.86914448    -0.78700
O1406       O  0.85349544  0.62094193  0.87359073    -0.97400
O1407       O  0.89156430  0.64300790  0.81466336    -0.90700
O1408       O  0.89662230  0.72572897  0.81156663    -0.93500
C1409       C  0.71314040  0.58871963  0.86951597     1.00200
C1410       C  0.76737940  0.70931710  0.79146712     1.13200
C1411       C  0.76175177  0.51499812  0.79751182     1.03900
O1412       O  0.80612891  0.51212633  0.87162702    -0.95700
O1413       O  0.88631219  0.57068889  0.85781809    -0.91400
O1414       O  0.92800770  0.63848697  0.86914078    -0.84600
C1415       C  0.91631830  0.59747474  0.86849389     1.10600
O1416       O  0.85230730  0.66940035  0.72686145    -0.97700
Zr1417     Zr  0.88005540  0.67878058  0.77366186     1.88900
O1418       O  0.96230841  0.71665236  0.81950847    -0.74300
O1419       O  0.86326427  0.54310290  0.80335710    -0.53600
O1420       O  0.89213549  0.63642961  0.74062106    -0.98200
O1421       O  0.90895835  0.75090162  0.74491031    -0.55500
O1422       O  0.94447072  0.70263723  0.77333199    -0.74800
C1423       C  0.96881971  0.71544713  0.79196201     0.97500
O1424       O  0.94106138  0.71065515  0.89665575    -0.63600
O1425       O  0.82301653  0.76908914  0.85708901    -0.58400
O1426       O  0.92900909  0.76131227  0.86928291    -0.95100
O1427       O  0.88964685  0.78410533  0.85592917    -0.93600
O1428       O  0.78964496  0.67330859  0.91849633    -0.93900
O1429       O  0.82580928  0.63724876  0.93645601    -0.92700
C1430       C  0.91764016  0.78870926  0.86876099     1.16400
H1431       H  0.77182310  0.67050759  0.85168419     0.32300
H1432       H  0.85902144  0.60787984  0.89054994     0.43200
H1433       H  0.91824525  0.75403234  0.80539894     0.36700
H1434       H  0.82017165  0.59241526  0.77596064     0.33200
H1435       H  0.75815846  0.55675255  0.93193411     0.25000
H1436       H  0.84950608  0.51147148  0.81074873     0.30900
H1437       H  0.89951764  0.61902376  0.75355520     0.36800
H1438       H  0.79474788  0.69922931  0.90487807     0.31300
H1439       H  0.82709221  0.79484065  0.84379412     0.30100
H1440       H  0.90275039  0.81372029  0.79740392     0.31800
H1441       H  0.91320801  0.74594123  0.72446041     0.30800
H1442       H  0.85097271  0.64205299  0.93312446     0.34800
H1443       H  0.92710087  0.68528515  0.91204109     0.27500
H1444       H  0.71615453  0.57696544  0.77168413     0.31800
H1445       H  0.82705112  0.66345697  0.73200093     0.34600
H1446       H  0.79583244  0.74957080  0.86000742     0.27200
H1447       H  0.96459286  0.71171834  0.89186074     0.40100
H1448       H  0.81370260  0.49164548  0.86549589     0.30100
H1449       H  0.76037427  0.53610646  0.90355782     0.37800
H1450       H  0.93407874  0.76760641  0.75150478     0.29600
H1451       H  0.85471755  0.54476151  0.78360503     0.29700
H1452       H  0.75263597  0.59288351  0.75125366     0.29900
C1453       C  0.61988319  0.78002081  0.74712125     0.85400
C1454       C  0.63102924  0.78905073  0.71355133    -0.54800
C1455       C  0.66841326  0.81325073  0.70616218     0.08300
C1456       C  0.69118340  0.82492440  0.73316020     0.19300
C1457       C  0.64001123  0.75738642  0.75937420    -0.55600
C1458       C  0.67732952  0.78027252  0.75190565     0.08400
C1459       C  0.63943026  0.82532897  0.75780260    -0.55100
C1460       C  0.67654636  0.84901543  0.75080038     0.09000
H1461       H  0.61167812  0.77699389  0.69700249     0.13500
H1462       H  0.72142855  0.84428451  0.72695968    -0.00700
H1463       H  0.62565456  0.72579898  0.77286946     0.13800
H1464       H  0.62488045  0.83733169  0.77053176     0.13600
C1465       C  0.56195444  0.52403761  0.91468343     0.85400
C1466       C  0.54138680  0.97645353  0.90677034    -0.54800
C1467       C  0.00340514  0.95381478  0.91483088     0.08300
C1468       C  0.99135863  0.98229494  0.92999355     0.19300
C1469       C  0.54265349  0.54725364  0.90158970    -0.55600
C1470       C  0.00564011  0.52571948  0.90969067     0.08400
C1471       C  0.55195276  0.51778539  0.94834127    -0.55100
C1472       C  0.51475351  0.49639637  0.95638469     0.09000
H1473       H  0.55455321  0.96208514  0.89489969     0.13500
H1474       H  0.96132392  0.96527656  0.93687176    -0.00700
H1475       H  0.55738414  0.57799017  0.88715419     0.13800
H1476       H  0.57196486  0.52893132  0.96438671     0.13600
Zr1477     Zr  0.97982133  0.55025076  0.52621971     2.17500
O1478       O  0.96022895  0.56866131  0.57104266    -0.52400
O1479       O  0.95249529  0.58280251  0.49487784    -0.75600
O1480       O  0.52796596  0.62837677  0.53831500    -0.82400
O1481       O  0.89550536  0.93535985  0.53547687    -0.84200
O1482       O  0.57971408  0.64915360  0.50833635    -0.79800
O1483       O  0.91349343  0.00466246  0.54487769    -0.91400
O1484       O  0.95840980  0.56927409  0.44772431    -0.77400
O1485       O  0.52023286  0.58189964  0.48153374    -0.86900
O1486       O  0.95275217  0.00364630  0.48891133    -0.86600
O1487       O  0.53711914  0.55777790  0.53899760    -0.75700
O1488       O  0.97123886  0.98448633  0.54657442    -0.85500
Zr1489     Zr  0.53965382  0.96547865  0.47381305     2.26400
Zr1490     Zr  0.57574575  0.58447414  0.49339720     2.06300
Zr1491     Zr  0.94623847  0.93631940  0.50955109     2.10000
Zr1492     Zr  0.99385151  0.53368410  0.44542732     1.78800
O1493       O  0.92031189  0.87618056  0.54947404    -0.94300
O1494       O  0.53129775  0.59877166  0.41434476    -0.42100
O1495       O  0.98625627  0.96425928  0.46468475    -0.78700
O1496       O  0.54961263  0.53510604  0.45700652    -0.97400
O1497       O  0.56951030  0.51730621  0.51396624    -0.90700
O1498       O  0.49712153  0.93563181  0.51720473    -0.93500
C1499       C  0.94670994  0.58404297  0.46742362     1.00200
C1500       C  0.88909595  0.96338056  0.54566102     1.13200
C1501       C  0.56169413  0.65657552  0.52774838     1.03900
O1502       O  0.60500359  0.64220653  0.45195404    -0.95700
O1503       O  0.62675161  0.58374301  0.46973767    -0.91400
O1504       O  0.60833271  0.51480489  0.45919173    -0.84600
C1505       C  0.63300415  0.55596273  0.45900772     1.10600
O1506       O  0.50722935  0.98786478  0.60523284    -0.97700
Zr1507     Zr  0.52371253  0.98218418  0.55466223     1.88900
O1508       O  0.56707318  0.93424274  0.50657004    -0.74300
O1509       O  0.62735402  0.61786062  0.52388426    -0.53600
O1510       O  0.58681066  0.53391037  0.58130061    -0.98200
O1511       O  0.98834068  0.92087343  0.59169772    -0.55500
O1512       O  0.56064820  0.94856124  0.55340909    -0.74800
C1513       C  0.57285600  0.93381591  0.53409667     0.97500
O1514       O  0.55476730  0.93991652  0.43047746    -0.63600
O1515       O  0.89496811  0.90301748  0.47876508    -0.58400
O1516       O  0.49165679  0.89141769  0.46123126    -0.95100
O1517       O  0.94052756  0.87364462  0.49029883    -0.93600
O1518       O  0.94027786  0.98382763  0.42087211    -0.93900
O1519       O  0.50602363  0.51589013  0.39812304    -0.92700
C1520       C  0.96006266  0.86715955  0.47178499     1.16400
H1521       H  0.92880359  0.99905201  0.48492640     0.32300
H1522       H  0.56588680  0.54586958  0.43901258     0.43200
H1523       H  0.99676089  0.90973919  0.52838907     0.36700
H1524       H  0.54856788  0.57764039  0.55358895     0.33200
H1525       H  0.51477302  0.59941372  0.39969080     0.25000
H1526       H  0.64512531  0.64667199  0.51267341     0.30900
H1527       H  0.59866580  0.03322205  0.56800625     0.36800
H1528       H  0.93236900  0.46125608  0.42424852     0.31300
H1529       H  0.87590069  0.87579072  0.49089465     0.30100
H1530       H  0.89694289  0.85326598  0.54270729     0.31800
H1531       H  0.48934269  0.89044199  0.57523341     0.30800
H1532       H  0.50699100  0.48878366  0.40197296     0.34800
H1533       H  0.56740970  0.96591018  0.41541030     0.27500
H1534       H  0.96016218  0.59586650  0.56483451     0.31800
H1535       H  0.51906678  0.97558900  0.61799181     0.34600
H1536       H  0.88446339  0.92230734  0.47776121     0.27200
H1537       H  0.57425848  0.93378985  0.43615237     0.40100
H1538       H  0.62828596  0.66495115  0.45895104     0.30100
H1539       H  0.53553412  0.62237272  0.42649471     0.37800
H1540       H  0.96396027  0.91858787  0.59357382     0.29600
H1541       H  0.61785183  0.62501277  0.54141512     0.29700
H1542       H  0.98096420  0.57771098  0.58365856     0.29900
C1543       C  0.79190762  0.64213780  0.42377492     0.85400
C1544       C  0.80029117  0.65044597  0.39007411    -0.54800
C1545       C  0.83700509  0.67135340  0.38069835     0.08300
C1546       C  0.86228421  0.68262635  0.40595343     0.19300
C1547       C  0.81149303  0.61782367  0.43475949    -0.55600
C1548       C  0.84826188  0.63917233  0.42552020     0.08400
C1549       C  0.81545183  0.68796311  0.43463660    -0.55100
C1550       C  0.85254549  0.70911610  0.42519070     0.09000
H1551       H  0.77854616  0.64003705  0.37527818     0.13500
H1552       H  0.89219992  0.69972627  0.39846821    -0.00700
H1553       H  0.79844650  0.58787354  0.44991747     0.13800
H1554       H  0.80417114  0.70132445  0.44954662     0.13600
C1555       C  0.73006503  0.88021534  0.57855661     0.85400
C1556       C  0.70706627  0.83613066  0.56543845    -0.54800
C1557       C  0.66984933  0.81405700  0.57451391     0.08300
C1558       C  0.65940864  0.83810372  0.59553256     0.19300
C1559       C  0.71055989  0.90544470  0.56931758    -0.55600
C1560       C  0.67356185  0.88307257  0.57798978     0.08400
C1561       C  0.72081141  0.86813907  0.61217736    -0.55100
C1562       C  0.68393086  0.84595650  0.62108501     0.09000
H1563       H  0.71898976  0.82428025  0.54984729     0.13500
H1564       H  0.62939389  0.82056391  0.60269606    -0.00700
H1565       H  0.72355167  0.93636756  0.55519663     0.13800
H1566       H  0.74204382  0.87697019  0.62737570     0.13600
Zr1567     Zr  0.61037250  0.80272926  0.14508232     2.17500
O1568       O  0.57136703  0.78668560  0.10418176    -0.52400
O1569       O  0.55535452  0.77386287  0.17895691    -0.75600
O1570       O  0.58721109  0.72874130  0.13097911    -0.82400
O1571       O  0.63293465  0.92176213  0.13676477    -0.84200
O1572       O  0.62396786  0.70382338  0.14768606    -0.79800
O1573       O  0.59097110  0.85356645  0.12632262    -0.91400
O1574       O  0.57203371  0.78398031  0.22571424    -0.77400
O1575       O  0.62114557  0.76735104  0.18706962    -0.86900
O1576       O  0.62616191  0.85008390  0.18274758    -0.86600
O1577       O  0.66105320  0.79481258  0.12832435    -0.73300
O1578       O  0.66403441  0.87047367  0.12409409    -0.85500
Zr1579     Zr  0.74211904  0.87473442  0.18945977     2.26400
Zr1580     Zr  0.67277789  0.76108124  0.17113461     2.06300
Zr1581     Zr  0.68001900  0.91679202  0.16256287     2.10000
Zr1582     Zr  0.63775501  0.81534494  0.22435919     1.78800
O1583       O  0.71456243  0.98027096  0.12554516    -0.94300
O1584       O  0.61491412  0.74545521  0.25459929    -0.42100
O1585       O  0.69153630  0.88311930  0.20513675    -0.78700
O1586       O  0.68853369  0.80677958  0.21017044    -0.97400
O1587       O  0.72687857  0.82809354  0.15152071    -0.90700
O1588       O  0.73153473  0.91022463  0.14744999    -0.93500
C1589       C  0.54804466  0.77194840  0.20678547     1.00200
C1590       C  0.60294819  0.89475597  0.12615505     1.13200
C1591       C  0.59667955  0.69961942  0.13384136     1.03900
O1592       O  0.64286834  0.69761809  0.20854836    -0.95700
O1593       O  0.72159850  0.75665729  0.19446299    -0.91400
O1594       O  0.76332640  0.82459541  0.20548083    -0.84600
C1595       C  0.75169361  0.78362797  0.20498326     1.10600
O1596       O  0.69511763  0.85958029  0.06034933    -0.97700
Zr1597     Zr  0.71534910  0.86260592  0.10995881     1.88900
O1598       O  0.79759497  0.90243338  0.15648650    -0.74300
O1599       O  0.69982465  0.73011571  0.14025244    -0.53600
O1600       O  0.72224265  0.81116294  0.08241436    -0.98200
O1601       O  0.74661599  0.93330410  0.07909909    -0.55500
O1602       O  0.77969296  0.88621750  0.11065345    -0.74800
C1603       C  0.80411877  0.90017907  0.12919178     0.97500
O1604       O  0.77749860  0.89597383  0.23245265    -0.63600
O1605       O  0.65546218  0.95152558  0.19238997    -0.58400
O1606       O  0.76477085  0.94781899  0.20451967    -0.95100
O1607       O  0.72580219  0.97051512  0.18974269    -0.93600
O1608       O  0.62165794  0.85721978  0.25479176    -0.93900
O1609       O  0.66291061  0.82923646  0.27218901    -0.92700
C1610       C  0.75374990  0.97555587  0.20288496     1.16400
H1611       H  0.60671866  0.85571437  0.18772127     0.32300
H1612       H  0.69409909  0.79387582  0.22719540     0.43200
H1613       H  0.75312595  0.93856762  0.14124945     0.36700
H1614       H  0.65457494  0.77668161  0.11244134     0.33200
H1615       H  0.59747740  0.74453433  0.27016849     0.25000
H1616       H  0.68839274  0.69915638  0.14889719     0.30900
H1617       H  0.74672899  0.82887915  0.07099956     0.36800
H1618       H  0.62664777  0.88324913  0.24135107     0.31300
H1619       H  0.66203366  0.97924885  0.18025677     0.30100
H1620       H  0.71394555  0.00440243  0.13427412     0.31800
H1621       H  0.75906935  0.92910146  0.06193876     0.30800
H1622       H  0.68678808  0.83042488  0.26949139     0.34800
H1623       H  0.76588878  0.86950183  0.24714765     0.27500
H1624       H  0.54780657  0.75946202  0.11137608     0.31800
H1625       H  0.66892940  0.83557013  0.06268061     0.34600
H1626       H  0.62824819  0.93324564  0.19275850     0.27200
H1627       H  0.80201474  0.90055010  0.22607399     0.40100
H1628       H  0.64577819  0.67492685  0.19983455     0.30100
H1629       H  0.59893217  0.72301435  0.24202268     0.37800
H1630       H  0.76724573  0.95337183  0.09008837     0.29600
H1631       H  0.68934408  0.72871309  0.12100970     0.29700
H1632       H  0.58298574  0.77843490  0.08872206     0.29900
C1633       C  0.95565445  0.96733891  0.08354466     0.85400
C1634       C  0.96518706  0.97312452  0.04989928    -0.54800
C1635       C  0.50209981  0.99602388  0.04188062     0.08300
C1636       C  0.52439956  0.50955698  0.06766465     0.19300
C1637       C  0.97543284  0.94461975  0.09662119    -0.55600
C1638       C  0.51159851  0.96519352  0.08802755     0.08400
C1639       C  0.97331101  0.51019043  0.09176205    -0.55100
C1640       C  0.51202202  0.53663507  0.08422435     0.09000
H1641       H  0.94490060  0.96138209  0.03410877     0.13500
H1642       H  0.55447990  0.52727037  0.06081529    -0.00700
H1643       H  0.96097771  0.91401855  0.11120516     0.13800
H1644       H  0.95904033  0.52313152  0.10382431     0.13600
C1645       C  0.89583041  0.70760887  0.25300900     0.85400
C1646       C  0.87350536  0.66125623  0.24427852    -0.54800
C1647       C  0.83667522  0.64054780  0.25222090     0.08300
C1648       C  0.82506311  0.66833133  0.26865972     0.19300
C1649       C  0.87732754  0.73203041  0.24006219    -0.55600
C1650       C  0.84024390  0.71191250  0.24824379     0.08400
C1651       C  0.88618294  0.70159992  0.28662079    -0.55100
C1652       C  0.84904987  0.68100747  0.29491761     0.09000
H1653       H  0.88593476  0.64613042  0.23230460     0.13500
H1654       H  0.79502693  0.65114881  0.27556723    -0.00700
H1655       H  0.89250550  0.76249080  0.22539631     0.13800
H1656       H  0.90649388  0.71172689  0.30240341     0.13600
C1657       C  0.85021586  0.91297285  0.08807395    -0.14400
C1658       C  0.84217034  0.91428968  0.11800586     0.07700
C1659       C  0.87063575  0.92877252  0.13683876    -0.14400
C1660       C  0.90667095  0.94335771  0.12560028    -0.14400
C1661       C  0.91525742  0.94472722  0.09520739     0.07700
C1662       C  0.88621419  0.92790785  0.07679225    -0.14400
H1663       H  0.82873609  0.90102667  0.07305005     0.11700
H1664       H  0.86523938  0.92946740  0.16013742     0.11700
H1665       H  0.92832290  0.95541134  0.14047933     0.11700
H1666       H  0.89046456  0.92642782  0.05360319     0.11700
C1667       C  0.58760920  0.62831635  0.12028551    -0.14400
C1668       C  0.57598714  0.65905442  0.11944235     0.07700
C1669       C  0.54529665  0.65099320  0.10407331    -0.14400
C1670       C  0.52576540  0.61222156  0.09108673    -0.14400
C1671       C  0.53660758  0.58083770  0.09303772     0.07700
C1672       C  0.56816496  0.58974333  0.10715687    -0.14400
H1673       H  0.61144275  0.63360315  0.13156653     0.11700
H1674       H  0.53594669  0.67420598  0.10252084     0.11700
H1675       H  0.50152566  0.60616755  0.08013264     0.11700
H1676       H  0.57673923  0.56597629  0.10946111     0.11700
C1677       C  0.54347575  0.88436467  0.10830303    -0.14400
C1678       C  0.58034093  0.91247065  0.11389412     0.07700
C1679       C  0.59476019  0.95800566  0.10956969    -0.14400
C1680       C  0.57269149  0.97494797  0.10071229    -0.14400
C1681       C  0.53548592  0.94694433  0.09621165     0.07700
C1682       C  0.52129521  0.90137283  0.09967628    -0.14400
H1683       H  0.53143688  0.84915208  0.11131632     0.11700
H1684       H  0.62307750  0.98074231  0.11351146     0.11700
H1685       H  0.58290628  0.51018853  0.09805643     0.11700
H1686       H  0.49301072  0.87869778  0.09567333     0.11700
C1687       C  0.75863769  0.72043044  0.22395827    -0.14400
C1688       C  0.77421049  0.76591625  0.21730603     0.07700
C1689       C  0.81143038  0.79381201  0.22206447    -0.14400
C1690       C  0.83275905  0.77645474  0.23239885    -0.14400
C1691       C  0.81730218  0.73078951  0.23845687     0.07700
C1692       C  0.77978199  0.70319407  0.23464761    -0.14400
H1693       H  0.72995211  0.69793989  0.22086405     0.11700
H1694       H  0.82426985  0.82902518  0.21732432     0.11700
H1695       H  0.86133256  0.79892110  0.23575743     0.11700
H1696       H  0.76667826  0.66808977  0.23927209     0.11700
C1697       C  0.76061538  0.54810777  0.21747926    -0.14400
C1698       C  0.77400664  0.01631063  0.21699709     0.07700
C1699       C  0.80167769  0.52455007  0.23559518    -0.14400
C1700       C  0.82150819  0.56386496  0.24792038    -0.14400
C1701       C  0.81154168  0.59596647  0.24447908     0.07700
C1702       C  0.78038763  0.58723840  0.22987501    -0.14400
H1703       H  0.73739335  0.54317804  0.20544461     0.11700
H1704       H  0.81841343  0.00626039  0.22947795     0.11700
H1705       H  0.84544305  0.56989162  0.25933560     0.11700
H1706       H  0.77257609  0.61163935  0.22646485     0.11700
C1707       C  0.98044054  0.74420757  0.19949450    -0.14400
C1708       C  0.50967712  0.75640400  0.21787971     0.07700
C1709       C  0.49947143  0.74766568  0.24840720    -0.14400
C1710       C  0.96527655  0.74373498  0.25985799    -0.14400
C1711       C  0.93620442  0.72866114  0.24142086     0.07700
C1712       C  0.94461868  0.73041406  0.21094108    -0.14400
H1713       H  0.49050172  0.75881613  0.17464954     0.11700
H1714       H  0.51902353  0.75029382  0.26405131     0.11700
H1715       H  0.96117515  0.74461976  0.28317491     0.11700
H1716       H  0.92296867  0.71955546  0.19606491     0.11700
C1717       C  0.85266736  0.68197325  0.34945468    -0.17500
C1718       C  0.83244675  0.67046752  0.32603079    -0.32700
H1719       H  0.88249057  0.69982862  0.34629327     0.11500
H1720       H  0.80256233  0.65251136  0.32931165     0.12100
C1721       C  0.69316868  0.62000863  0.43627996    -0.14400
C1722       C  0.67195178  0.57479429  0.44632940     0.07700
C1723       C  0.68982120  0.55072914  0.44741616    -0.14400
C1724       C  0.72828223  0.57195518  0.44030281    -0.14400
C1725       C  0.75001458  0.61799657  0.43242263     0.07700
C1726       C  0.73136224  0.64109733  0.42927342    -0.14400
H1727       H  0.68025072  0.63957900  0.43448115     0.11700
H1728       H  0.67435946  0.51587631  0.45469464     0.11700
H1729       H  0.74053727  0.55177432  0.44085594     0.11700
H1730       H  0.74648866  0.67586123  0.42171020     0.11700
C1731       C  0.93931603  0.82124388  0.42914146    -0.14400
C1732       C  0.93876232  0.82428875  0.45969636     0.07700
C1733       C  0.91054344  0.78827171  0.47855287    -0.14400
C1734       C  0.88260692  0.75150103  0.46727434    -0.14400
C1735       C  0.88208618  0.74923260  0.43675771     0.07700
C1736       C  0.91147196  0.78377546  0.41782559    -0.14400
H1737       H  0.46099219  0.84164636  0.41281306     0.11700
H1738       H  0.90905744  0.78953377  0.50220283     0.11700
H1739       H  0.86119511  0.72479734  0.48247386     0.11700
H1740       H  0.91212507  0.78244773  0.39417494     0.11700
C1741       C  0.87000196  0.60902943  0.46636403    -0.14400
C1742       C  0.87353161  0.62521078  0.43650436     0.07700
C1743       C  0.90257094  0.63028168  0.41744659    -0.14400
C1744       C  0.92719842  0.61833450  0.42785132    -0.14400
C1745       C  0.92346810  0.60158249  0.45759992     0.07700
C1746       C  0.89492033  0.59750469  0.47688579    -0.14400
H1747       H  0.84822982  0.60572199  0.48162782     0.11700
H1748       H  0.90582003  0.64270861  0.39435480     0.11700
H1749       H  0.94893581  0.62167191  0.41251866     0.11700
H1750       H  0.89118070  0.58416021  0.49982695     0.11700
C1751       C  0.79432045  0.94974366  0.56157788    -0.14400
C1752       C  0.77205205  0.90403421  0.57046014     0.07700
C1753       C  0.79004824  0.88024192  0.57453592    -0.14400
C1754       C  0.82823964  0.90036160  0.56812256    -0.14400
C1755       C  0.85012153  0.94532518  0.55776775     0.07700
C1756       C  0.83284225  0.97005023  0.55528557    -0.14400
H1757       H  0.78254672  0.97038933  0.55961682     0.11700
H1758       H  0.77431916  0.84558004  0.58240151     0.11700
H1759       H  0.84061875  0.88025586  0.57062927     0.11700
H1760       H  0.84885235  0.00470210  0.54740455     0.11700
C1761       C  0.58179728  0.70409249  0.56945248    -0.14400
C1762       C  0.58408388  0.69971169  0.53921824     0.07700
C1763       C  0.61429274  0.73402009  0.52076692    -0.14400
C1764       C  0.64235176  0.77038029  0.53227765    -0.14400
C1765       C  0.64085238  0.77404053  0.56257729     0.07700
C1766       C  0.60981301  0.74103410  0.58095950    -0.14400
H1767       H  0.55956779  0.67795821  0.58441375     0.11700
H1768       H  0.61710511  0.73176069  0.49736183     0.11700
H1769       H  0.66521064  0.79577342  0.51739631     0.11700
H1770       H  0.60778375  0.74314888  0.60444754     0.11700
C1771       C  0.61873796  0.89128159  0.58547348    -0.14400
C1772       C  0.64785072  0.89618151  0.56660393     0.07700
C1773       C  0.65056890  0.91038772  0.53642383    -0.14400
C1774       C  0.62498553  0.92052190  0.52542888    -0.14400
C1775       C  0.59660167  0.91716822  0.54454414     0.07700
C1776       C  0.59354902  0.90208028  0.57462497    -0.14400
H1777       H  0.61586967  0.87980919  0.60872681     0.11700
H1778       H  0.67225602  0.91320621  0.52130022     0.11700
H1779       H  0.62813559  0.93235131  0.50221684     0.11700
H1780       H  0.57188267  0.89910794  0.58986182     0.11700
C1781       C  0.49771738  0.48789388  0.98719920    -0.17500
C1782       C  0.51911380  0.00559435  0.01091969    -0.32700
H1783       H  0.46787537  0.46809411  0.99012225     0.11500
H1784       H  0.04863120  0.02075932  0.00773087     0.12100
C1785       C  0.68594277  0.82813338  0.67521873    -0.17500
C1786       C  0.66751175  0.83041572  0.65219669    -0.32700
H1787       H  0.71497282  0.83871255  0.67180093     0.11500
H1788       H  0.63867243  0.82052431  0.65585104     0.12100
C1789       C  0.92365225  0.85663026  0.88614928    -0.14400
C1790       C  0.93775352  0.82857405  0.88376359     0.07700
C1791       C  0.97140909  0.83969241  0.89519571    -0.14400
C1792       C  0.99152264  0.87916007  0.90713868    -0.14400
C1793       C  0.97859786  0.90855591  0.90769072     0.07700
C1794       C  0.94384484  0.89612398  0.89808717    -0.14400
H1795       H  0.89740726  0.84873391  0.87803436     0.11700
H1796       H  0.98276140  0.81856939  0.89415411     0.11700
H1797       H  0.51992872  0.88899450  0.91313603     0.11700
H1798       H  0.93303759  0.91773608  0.89831749     0.11700
C1799       C  0.64709929  0.56270046  0.86155801    -0.14400
C1800       C  0.67511210  0.57464567  0.88069828     0.07700
C1801       C  0.66689331  0.57472499  0.91081745    -0.14400
C1802       C  0.63108514  0.56091219  0.92195420    -0.14400
C1803       C  0.60238198  0.54631666  0.90322573     0.07700
C1804       C  0.61122054  0.54905645  0.87268764    -0.14400
H1805       H  0.65271719  0.56330615  0.83809351     0.11700
H1806       H  0.68809336  0.58495221  0.92607759     0.11700
H1807       H  0.62770644  0.05826978  0.94571754     0.11700
H1808       H  0.58982882  0.53872817  0.85758265     0.11700
C1809       C  0.92329313  0.53389047  0.88679344    -0.14400
C1810       C  0.93873796  0.57947962  0.88062257     0.07700
C1811       C  0.97593425  0.60729997  0.88534115    -0.14400
C1812       C  0.99740208  0.58991288  0.89513160    -0.14400
C1813       C  0.98223266  0.54423539  0.90052714     0.07700
C1814       C  0.94468879  0.51655244  0.89680244    -0.14400
H1815       H  0.89460330  0.51143220  0.88368501     0.11700
H1816       H  0.98868754  0.64253724  0.88095315     0.11700
H1817       H  0.52564387  0.61280994  0.90019567     0.11700
H1818       H  0.93290269  0.98077108  0.89863599     0.11700
C1819       C  0.70879581  0.69949533  0.77246061    -0.14400
C1820       C  0.74521024  0.72737408  0.77905840     0.07700
C1821       C  0.75978508  0.77295518  0.77505908    -0.14400
C1822       C  0.73812872  0.79014591  0.76559387    -0.14400
C1823       C  0.70124055  0.76226059  0.76022102     0.07700
C1824       C  0.68706469  0.71672226  0.76322227    -0.14400
H1825       H  0.69675219  0.66428075  0.77509181     0.11700
H1826       H  0.78788352  0.79549034  0.77964605     0.11700
H1827       H  0.75015112  0.82521941  0.76328062     0.11700
H1828       H  0.65908435  0.69420806  0.75842532     0.11700
C1829       C  0.53315706  0.73456507  0.79955334    -0.14400
C1830       C  0.00668931  0.72889297  0.78064941     0.07700
C1831       C  0.51504457  0.73023008  0.74961891    -0.14400
C1832       C  0.55111572  0.74477283  0.73858285    -0.14400
C1833       C  0.57908098  0.75584618  0.75785020     0.07700
C1834       C  0.56921214  0.74885875  0.78854445    -0.14400
H1835       H  0.02733471  0.73148153  0.82373708     0.11700
H1836       H  0.49450165  0.72333517  0.73404286     0.11700
H1837       H  0.55654681  0.74872265  0.71493447     0.11700
H1838       H  0.59001915  0.75672415  0.80400567     0.11700
C1839       C  0.75247207  0.94388564  0.78429550    -0.14400
C1840       C  0.73878942  0.97252544  0.78543660     0.07700
C1841       C  0.70551275  0.96142510  0.77319288    -0.14400
C1842       C  0.68596243  0.92201493  0.76088253    -0.14400
C1843       C  0.69938613  0.89307560  0.76043980     0.07700
C1844       C  0.73308428  0.90480819  0.77181163    -0.14400
H1845       H  0.78583778  0.46114775  0.78189262     0.11700
H1846       H  0.69441872  0.98289500  0.77336709     0.11700
H1847       H  0.66011521  0.91394972  0.75192187     0.11700
H1848       H  0.74384271  0.88309106  0.77211566     0.11700
loop_ 
_geom_bond_atom_site_label_1 
_geom_bond_atom_site_label_2 
_geom_bond_distance 
_geom_bond_site_symmetry_2 
_ccdc_geom_bond_type 
Zr1           O2   2.441       .  S
Zr1           O3   2.429       .  S
Zr1           O4   2.464       .  S
Zr1           O7   2.453       .  S
Zr1           O9   2.386       .  S
Zr1          O10   2.385       .  S
Zr1          O11   2.405       .  S
Zr1          O12   2.402       .  S
O2           H58   0.990       .  S
O2           H66   0.990       .  S
O3           C23   1.284       .  A
O4           C25   1.290       .  A
O5          Zr15   2.417       .  S
O5           C24   1.283       .  A
O6          Zr14   2.393       .  S
O6           C25   1.278       .  A
O7           C24   1.290       .  A
O8          Zr16   2.401       .  S
O8           C23   1.280       .  A
O9          Zr14   2.390       .  S
O9          Zr16   2.377       .  S
O10         Zr15   2.381       .  S
O10         Zr16   2.380       .  S
O10          H45   0.962       .  S
O11         Zr14   2.400       .  S
O11         Zr31   2.389       .  S
O11          H48   0.966       .  S
O12         Zr15   2.383       .  S
O12         Zr31   2.387       .  S
Zr13         O38   2.439       .  S
Zr13         O32   2.420       .  S
Zr13         O40   2.457       .  S
Zr13         O28   2.456       .  S
Zr13         O19   2.391       .  S
Zr13         O20   2.403       .  S
Zr13         O21   2.380       .  S
Zr13         O22   2.393       .  S
Zr14         O33   2.436       .  S
Zr14         O26   2.436       .  S
Zr14         O27   2.414       .  S
Zr14         O20   2.396       .  S
Zr14         O21   2.379       .  S
Zr15         O17   2.434       .  S
Zr15         O39   2.438       .  S
Zr15         O41   2.401       .  S
Zr15         O19   2.391       .  S
Zr15         O22   2.387       .  S
Zr16         O42   2.435       .  S
Zr16         O43   2.435       .  S
Zr16         O18   2.438       .  S
Zr16         O19   2.383       .  S
Zr16         O20   2.388       .  S
O17          H54   0.990       .  S
O18          H49   0.990       .  S
O18          H63   0.990       .  S
O20          H46   0.965       .  S
O21         Zr31   2.375       .  S
O22         Zr31   2.381       .  S
O22          H47   0.963       .  S
C23         C414   1.471       .  S
C24         C434   1.489       .  S
C25         C916   1.481   1_545  S
O26          H62   0.990       .  S
O27          C29   1.281       .  A
O28          C29   1.289       .  A
C29         C424   1.484       .  S
O30         Zr31   2.435       .  S
O30          H59   0.990       .  S
Zr31         O34   2.435       .  S
Zr31         O35   2.439       .  S
Zr31         O36   2.401       .  S
O32          C37   1.282       .  A
O33          H50   0.990       .  S
O33          H65   0.990       .  S
O34          H51   0.990       .  S
O35          H55   0.990       .  S
O35          H64   0.989       .  S
O36          C37   1.279       .  A
C37         C444   1.471       .  S
O38          H57   0.990       .  S
O38          H61   0.990       .  S
O39          H53   0.990       .  S
O39          H60   0.990       .  S
O40          C44   1.290       .  A
O41          C44   1.280       .  A
O42          H52   0.990       .  S
O43          H56   0.990       .  S
C44         C404   1.484       .  S
C67          C68   1.538       .  S
C67          C73   1.527       .  S
C67          C71   1.534       .  S
C67         C447   1.518       .  S
C68          H75   1.077       .  S
C68          C69   1.368       .  D
C69          C70   1.539       .  S
C69         C399   1.484       .  S
C70          C74   1.543       .  S
C70          C72   1.548       .  S
C70          H76   1.110       .  S
C71          H77   1.086       .  S
C71          C72   1.369       .  D
C72         C437   1.490       .  S
C73          H78   1.087       .  S
C73          C74   1.359       .  D
C74         C457   1.483       .  S
C79          C85   1.539       .  S
C79          C83   1.534       .  S
C79         C542   1.523   1_545  S
C79         C417   1.515       .  S
C80         C541   1.525       .  S
C80          H87   1.087       .  S
C80        C1005   1.358       .  D
C81          C82   1.547       .  S
C81        C1004   1.358       .  D
C81         C407   1.487       .  S
C82        C1472   1.540       .  S
C82         C546   1.547       .  S
C82          H88   1.109       .  S
C83          H89   1.085       .  S
C83        C1008   1.368       .  D
C84         C544   1.550   1_545  S
C84        C1007   1.370       .  D
C84         C427   1.496       .  S
C85          H90   1.077       .  S
C85          C86   1.367   1_545  D
C86        C1468   1.543   1_455  S
C86         C395   1.487   1_455  S
Zr91         O92   2.441       .  S
Zr91         O93   2.439       .  S
Zr91       O1018   2.512       .  S
Zr91        O559   2.499       .  S
Zr91       O1023   2.391       .  S
Zr91        O562   2.389       .  S
Zr91       O1025   2.411       .  S
Zr91        O564   2.413   1_545  S
O92         H148   0.990       .  S
O92         H156   0.991       .  S
O93         C113   1.286       .  A
O94       Zr1015   2.495   1_455  S
O94         C115   1.291       .  A
O95        Zr105   2.380       .  S
O95         C114   1.275       .  A
O96        Zr104   2.395       .  S
O96         C115   1.272       .  A
O97        Zr553   2.496       .  S
O97         C114   1.297       .  A
O98        Zr106   2.411       .  S
O98         C113   1.281       .  A
O99        Zr104   2.393       .  S
O99       Zr1015   2.399   1_455  S
O99       Zr1030   2.377   1_455  S
O100       Zr105   2.380       .  S
O100       Zr553   2.387       .  S
O100       Zr568   2.378       .  S
O100        H135   0.965       .  S
O101       Zr104   2.394       .  S
O101      Zr1015   2.420   1_455  S
O101       Zr583   2.388   1_545  S
O101        H138   0.966       .  S
O102       Zr105   2.381       .  S
O102       Zr553   2.414       .  S
O102      Zr1045   2.394       .  S
Zr103       O128   2.438       .  S
Zr103       O122   2.446       .  S
Zr103       O130   2.512   1_455  S
Zr103       O580   2.500       .  S
Zr103       O112   2.393   1_455  S
Zr103      O1033   2.406   1_455  S
Zr103       O572   2.417       .  S
Zr103       O573   2.386       .  S
Zr104       O123   2.437       .  S
Zr104       O116   2.434       .  S
Zr104       O117   2.391       .  S
Zr104       O110   2.398       .  S
Zr104       O111   2.380       .  S
Zr105       O107   2.435       .  S
Zr105       O129   2.439       .  S
Zr105       O131   2.368       .  S
Zr105       O109   2.388       .  S
Zr105      O1036   2.378       .  S
Zr106       O594   2.435   1_545  S
Zr106      O1057   2.436       .  S
Zr106      O1032   2.440       .  S
Zr106      O1023   2.375       .  S
Zr106       O562   2.379       .  S
Zr106       O571   2.401   1_545  S
Zr106      O1034   2.391       .  S
O107        H144   0.990       .  S
O108      Zr1030   2.437   1_455  S
O108        H139   0.990       .  S
O108        H153   0.990       .  S
O109      Zr1027   2.397       .  S
O109       Zr568   2.389       .  S
O110       Zr565   2.412   1_545  S
O110      Zr1030   2.389   1_455  S
O110        H136   0.965       .  S
O111       Zr565   2.392   1_545  S
O111       Zr583   2.379   1_545  S
O112       Zr121   2.379   1_655  S
O112      Zr1029   2.379       .  S
O112       H1061   0.967       .  S
C113        C359   1.473       .  S
C114        C369   1.490       .  S
C115        C376   1.496       .  S
O116        H152   0.990       .  S
O117        C119   1.277       .  A
O118       Zr565   2.500   1_545  S
O118        C119   1.297       .  A
C119        C336   1.492       .  S
O120       Zr121   2.438       .  S
O120        H149   0.990       .  S
Zr121       O586   2.437       .  S
Zr121      O1049   2.440   1_455  S
Zr121       O126   2.412       .  S
Zr121       O563   2.393       .  S
Zr121      O1026   2.391   1_455  S
Zr121       O573   2.375       .  S
O122        C127   1.288       .  A
O123        H140   0.990       .  S
O123        H155   0.990       .  S
O124       Zr583   2.438   1_545  S
O124        H603   0.990       .  S
O125      Zr1045   2.439       .  S
O125        H154   0.990       .  S
O125       H1069   0.989       .  S
O126        C127   1.281       .  A
C127        C389   1.476       .  S
O128        H147   0.990       .  S
O128        H151   0.990       .  S
O129        H143   0.990       .  S
O129        H150   0.990       .  S
O130       C1058   1.300       .  A
O131        C134   1.273       .  A
O132       Zr568   2.434       .  S
O132        H604   0.990       .  S
O133      Zr1030   2.435   1_455  S
O133        H146   0.990   1_545  S
C134       O1054   1.300       .  A
C134        C346   1.491       .  S
H137       O1036   0.967       .  S
H141        O586   0.990       .  S
H142        O594   0.990       .  S
H145       O1049   0.990       .  S
C157        C158   1.535       .  S
C157        C163   1.552       .  S
C157        C161   1.545       .  S
C157        C339   1.538       .  S
C158        H165   1.084       .  S
C158        C159   1.365       .  D
C159        C160   1.537       .  S
C159        C331   1.486       .  S
C160        C164   1.533       .  S
C160        C162   1.531       .  S
C160        H166   1.110       .  S
C161        H167   1.083       .  S
C161        C162   1.367       .  D
C162        C356   1.476       .  S
C163        H168   1.086       .  S
C163        C164   1.376       .  D
C164        C349   1.496       .  S
C169        C170   1.556       .  S
C169        C175   1.533       .  S
C169        C173   1.543       .  S
C169        C366   1.539       .  S
C170        H177   1.085       .  S
C170        C171   1.381       .  D
C171        C172   1.533       .  S
C171        C379   1.499       .  S
C172        C176   1.534       .  S
C172        C174   1.532       .  S
C172        H178   1.109       .  S
C173        H179   1.081       .  S
C173        C174   1.365       .  D
C174        C386   1.481       .  S
C175        H180   1.084       .  S
C175        C176   1.363       .  D
C176        C400   1.480       .  S
Zr181       O182   2.440       .  S
Zr181       O183   2.425       .  S
Zr181       O184   2.461       .  S
Zr181       O187   2.448       .  S
Zr181       O189   2.389       .  S
Zr181       O190   2.382       .  S
Zr181       O191   2.400       .  S
Zr181       O192   2.401       .  S
O182        H238   0.990       .  S
O182        H246   0.990       .  S
O183        C203   1.283       .  A
O184        C205   1.290       .  A
O185       Zr195   2.421       .  S
O185        C204   1.283       .  A
O186       Zr194   2.402       .  S
O186        C205   1.280       .  A
O187        C204   1.288       .  A
O188       Zr196   2.401       .  S
O188        C203   1.279       .  A
O189       Zr194   2.396       .  S
O189       Zr196   2.379       .  S
O190       Zr195   2.378       .  S
O190       Zr196   2.378       .  S
O190        H225   0.963       .  S
O191       Zr194   2.404       .  S
O191       Zr211   2.383       .  S
O191        H228   0.965       .  S
O192       Zr195   2.387       .  S
O192       Zr211   2.386       .  S
Zr193       O218   2.437       .  S
Zr193       O212   2.424       .  S
Zr193       O220   2.441       .  S
Zr193       O208   2.456       .  S
Zr193       O199   2.396       .  S
Zr193       O200   2.399       .  S
Zr193       O201   2.374       .  S
Zr193       O202   2.392       .  S
Zr194       O213   2.436       .  S
Zr194       O206   2.435       .  S
Zr194       O207   2.423       .  S
Zr194       O200   2.391       .  S
Zr194       O201   2.376       .  S
Zr195       O197   2.437       .  S
Zr195       O219   2.440       .  S
Zr195       O221   2.403       .  S
Zr195       O199   2.391       .  S
Zr195       O202   2.389       .  S
Zr196       O222   2.436       .  S
Zr196       O223   2.437       .  S
Zr196       O198   2.437       .  S
Zr196       O199   2.387       .  S
Zr196       O200   2.390       .  S
O197        H234   0.990       .  S
O198        H229   0.990       .  S
O198        H243   0.990       .  S
O200        H226   0.965       .  S
O201       Zr211   2.371       .  S
O202       Zr211   2.379       .  S
O202        H227   0.964       .  S
C203        C322   1.471       .  S
C204        C292   1.487       .  S
C205        C282   1.483       .  S
O206        H242   0.990       .  S
O207        C209   1.284       .  A
O208        C209   1.289       .  A
C209        C302   1.490       .  S
O210       Zr211   2.435       .  S
O210        H239   0.990       .  S
Zr211       O214   2.436       .  S
Zr211       O215   2.438       .  S
Zr211       O216   2.398       .  S
O212        C217   1.283       .  A
O213        H230   0.990       .  S
O213        H245   0.990       .  S
O214        H231   0.990       .  S
O215        H235   0.990       .  S
O215        H244   0.990       .  S
O216        C217   1.278       .  A
C217        C272   1.472       .  S
O218        H237   0.990       .  S
O218        H241   0.990       .  S
O219        H233   0.990       .  S
O219        H240   0.990       .  S
O220        C224   1.288       .  A
O221        C224   1.280       .  A
O222        H232   0.990       .  S
O223        H236   0.990       .  S
C224        C312   1.478       .  S
C247        C248   1.544       .  S
C247        C251   1.535       .  S
C247        C715   1.527       .  S
C247        C275   1.517       .  S
C248        H255   1.077       .  S
C248       C1173   1.370       .  D
C249        C712   1.543       .  S
C249       C1172   1.365   1_455  D
C249        C396   1.484       .  S
C250        C254   1.546       .  S
C250        C711   1.542   1_545  S
C250        C714   1.546   1_545  S
C250        H256   1.109       .  S
C251        H257   1.086       .  S
C251       C1176   1.367       .  D
C252        C712   1.549       .  S
C252       C1175   1.369   1_455  D
C252        C295   1.493       .  S
C253        C709   1.523   1_545  S
C253        H258   1.087       .  S
C253       C1178   1.357       .  D
C254       C1177   1.357   1_455  D
C254        C285   1.483       .  S
C259        C260   1.523       .  S
C259        C265   1.539       .  S
C259        C263   1.535       .  S
C259        C325   1.518       .  S
C260        H267   1.087       .  S
C260        C261   1.358       .  D
C261        C262   1.549       .  S
C261        C315   1.487       .  S
C262        C266   1.546       .  S
C262        C264   1.553       .  S
C262        H268   1.109       .  S
C263        H269   1.085       .  S
C263        C264   1.369       .  D
C264        C305   1.497       .  S
C265        H270   1.076       .  S
C265        C266   1.369       .  D
C266        C332   1.493       .  S
C271        C272   1.405       .  A
C271        C276   1.389       .  A
C271        H277   1.083       .  S
C272        C273   1.401       .  A
C273        C274   1.394       .  A
C273        H278   1.083       .  S
C274        C275   1.411       .  A
C274        H279   1.083       .  S
C275        C276   1.405       .  A
C276        H280   1.076       .  S
C281        C282   1.411       .  A
C281        C286   1.397       .  A
C281        H287   1.083       .  S
C282        C283   1.403       .  A
C283        C284   1.398       .  A
C283        H288   1.083       .  S
C284        C285   1.409       .  A
C284        H289   1.083       .  S
C285        C286   1.398       .  A
C286        H290   1.080       .  S
C291        C292   1.404       .  A
C291        C296   1.400       .  A
C291        H297   1.083       .  S
C292        C293   1.409       .  A
C293        C294   1.400       .  A
C293        H298   1.083       .  S
C294        C295   1.403       .  A
C294        H761   1.079       .  S
C295        C296   1.409       .  A
C296        H300   1.082   1_455  S
H299        C756   1.079   1_545  S
C301        C302   1.408       .  A
C301        C306   1.399       .  A
C301        H307   1.083       .  S
C302        C303   1.406       .  A
C303        C304   1.404       .  A
C303        H308   1.083       .  S
C304        C305   1.412       .  A
C304        H309   1.082       .  S
C305        C306   1.402       .  A
C306        H310   1.079       .  S
C311        C316   1.398       .  A
C311        C774   1.412       .  A
C311        H317   1.083       .  S
C312        C773   1.409       .  A
C312        C775   1.402       .  A
C313        C314   1.397       .  A
C313        C774   1.401       .  A
C313        H780   1.083       .  S
C314        C315   1.411       .  A
C314        H319   1.083       .  S
C315        C316   1.399       .  A
C316        H320   1.079       .  S
H318        C775   1.083       .  S
C321        C326   1.393       .  A
C321       C1246   1.401       .  A
C321       H1251   1.083       .  S
C322        C323   1.403   1_455  A
C322       C1245   1.402   1_455  A
C323       C1248   1.389       .  A
C323        H328   1.083   1_655  S
C324        C325   1.408       .  A
C324       C1247   1.391       .  A
C324        H329   1.076       .  S
C325        C326   1.409       .  A
C326        H330   1.083       .  S
H327       C1245   1.083       .  S
C331        H333   1.081       .  S
C331        C332   1.353       .  D
C332        H334   1.083       .  S
C335        C336   1.411       .  A
C335        C340   1.399       .  A
C335        H341   1.083       .  S
C336        C337   1.401       .  A
C337        C338   1.407       .  A
C337        H342   1.083       .  S
C338        C339   1.417       .  A
C338        H343   1.079       .  S
C339        C340   1.406       .  A
C340        H344   1.083       .  S
C345        C346   1.404       .  A
C345        C350   1.410       .  A
C345       H1275   1.083       .  S
C346        C347   1.412       .  A
C347        C348   1.398       .  A
C347        H352   1.084       .  S
C348        C349   1.402       .  A
C348        H353   1.083       .  S
C349        C350   1.411       .  A
C350        H354   1.083       .  S
H351       C1269   1.083       .  S
C355        C356   1.404       .  A
C355        C360   1.396       .  A
C355        H361   1.083       .  S
C356        C357   1.402       .  A
C357        C358   1.395       .  A
C357        H362   1.083       .  S
C358        C359   1.405       .  A
C358        H363   1.083       .  S
C359        C360   1.404       .  A
C360        H364   1.083       .  S
C365        C366   1.419       .  A
C365        C370   1.407       .  A
C365        H371   1.077       .  S
C366        C367   1.405       .  A
C367        C368   1.398       .  A
C367        H372   1.083       .  S
C368        C369   1.411       .  A
C368        H373   1.083       .  S
C369        C370   1.401       .  A
C370        H374   1.083       .  S
C375        C376   1.405       .  A
C375        C380   1.407       .  A
C375        H381   1.083       .  S
C376        C377   1.412       .  A
C377        C378   1.401       .  A
C377        H382   1.083       .  S
C378        C379   1.402       .  A
C378        H383   1.083       .  S
C379        C380   1.412       .  A
C380        H384   1.082       .  S
C385        C386   1.402       .  A
C385        C390   1.397       .  A
C385        H391   1.083       .  S
C386        C387   1.406       .  A
C387        C388   1.398       .  A
C387        H392   1.083       .  S
C388        C389   1.403       .  A
C388        H393   1.083       .  S
C389        C390   1.407       .  A
C390        H394   1.083       .  S
C395        H397   1.081       .  S
C395        C858   1.353   1_666  D
C396       H1322   1.081       .  S
C396        C857   1.353   1_454  D
H398       C1320   1.081       .  S
C399        H401   1.083       .  S
C399        C400   1.349       .  D
C400        H402   1.082       .  S
C403        C404   1.411       .  A
C403        C408   1.397       .  A
C403        H409   1.083       .  S
C404        C405   1.402       .  A
C405        C406   1.398       .  A
C405        H410   1.083       .  S
C406        C407   1.411       .  A
C406       H1335   1.083       .  S
C407        C408   1.399       .  A
C408        H412   1.080       .  S
H411       C1330   1.083   1_455  S
C413        C414   1.402       .  A
C413        C418   1.393       .  A
C413        H419   1.083       .  S
C414        C415   1.403       .  A
C415        C416   1.389       .  A
C415        H420   1.083       .  S
C416        C417   1.407       .  A
C416        H883   1.077       .  S
C417        C418   1.409       .  A
C418        H422   1.083       .  S
H421        C878   1.077       .  S
C423        C424   1.407       .  A
C423        C428   1.399       .  A
C423        H429   1.083       .  S
C424        C425   1.403       .  A
C425        C426   1.399       .  A
C425        H430   1.083       .  S
C426        C427   1.410       .  A
C426       H1355   1.081       .  S
C427        C428   1.405       .  A
C428        H894   1.079   1_545  S
H431       C1350   1.082   1_455  S
H432        C890   1.079       .  S
C433        C434   1.405       .  A
C433        C438   1.401       .  A
C433        H439   1.083       .  S
C434        C435   1.410       .  A
C435        C436   1.399       .  A
C435        H440   1.083       .  S
C436        C437   1.402       .  A
C436        H441   1.078       .  S
C437        C438   1.408       .  A
C438        H442   1.083       .  S
C443        C448   1.394       .  A
C443       C1368   1.402       .  A
C443       H1373   1.083       .  S
C444       C1367   1.402       .  A
C444       C1369   1.403       .  A
C445        C446   1.391       .  A
C445       C1368   1.403       .  A
C445        H450   1.083   1_455  S
C446        C447   1.409       .  A
C446        H451   1.076       .  S
C447        C448   1.409       .  A
C448        H452   1.083       .  S
H449       C1367   1.083       .  S
C453        C454   1.409       .  A
C453        C458   1.394       .  A
C453        H921   1.083       .  S
C454        C487   1.478       .  S
C454        C455   1.402       .  A
C455        C456   1.396       .  A
C455        H460   1.083       .  S
C456        C457   1.410       .  A
C456        H461   1.083       .  S
C457        C458   1.398       .  A
C458        H462   1.078       .  S
H459        C915   1.083       .  S
Zr463       O464   2.443       .  S
Zr463       O465   2.432       .  S
Zr463       O466   2.452       .  S
Zr463       O469   2.433       .  S
Zr463       O471   2.381       .  S
Zr463       O472   2.382       .  S
Zr463       O473   2.402       .  S
Zr463       O474   2.402       .  S
O464        H520   0.991       .  S
O464        H528   0.990       .  S
O465        C485   1.284       .  A
O466        C487   1.288       .  A
O467       Zr477   2.422       .  S
O467        C486   1.283       .  A
O468       Zr476   2.401       .  S
O468        C487   1.279       .  A
O469        C486   1.285       .  A
O470       Zr478   2.399       .  S
O470        C485   1.279       .  A
O471       Zr476   2.392       .  S
O471       Zr478   2.377       .  S
O472       Zr477   2.379       .  S
O472       Zr478   2.377       .  S
O472        H507   0.962       .  S
O473       Zr476   2.399       .  S
O473       Zr493   2.385       .  S
O473        H510   0.965       .  S
O474       Zr477   2.383       .  S
O474       Zr493   2.386       .  S
Zr475       O500   2.442       .  S
Zr475       O494   2.429       .  S
Zr475       O502   2.457       .  S
Zr475       O490   2.450       .  S
Zr475       O481   2.394       .  S
Zr475       O482   2.401       .  S
Zr475       O483   2.376       .  S
Zr475       O484   2.390       .  S
Zr476       O495   2.436       .  S
Zr476       O488   2.435       .  S
Zr476       O489   2.415       .  S
Zr476       O482   2.394       .  S
Zr476       O483   2.378       .  S
Zr477       O479   2.435       .  S
Zr477       O501   2.438       .  S
Zr477       O503   2.408       .  S
Zr477       O481   2.394       .  S
Zr477       O484   2.389       .  S
Zr478       O504   2.434       .  S
Zr478       O505   2.434       .  S
Zr478       O480   2.439       .  S
Zr478       O481   2.387       .  S
Zr478       O482   2.384       .  S
O479        H516   0.990       .  S
O480        H511   0.990       .  S
O480        H525   0.990       .  S
O482        H508   0.966       .  S
O483       Zr493   2.376       .  S
O484       Zr493   2.384       .  S
O484        H509   0.965       .  S
C485        C876   1.472       .  S
C486        C896   1.482       .  S
O488        H524   0.990       .  S
O489        C491   1.282       .  A
O490        C491   1.287       .  A
C491        C886   1.482       .  S
O492       Zr493   2.436       .  S
O492        H521   0.990       .  S
Zr493       O496   2.436       .  S
Zr493       O497   2.439       .  S
Zr493       O498   2.403       .  S
O494        C499   1.284       .  A
O495        H512   0.990       .  S
O495        H527   0.990       .  S
O496        H513   0.990       .  S
O497        H517   0.990       .  S
O497        H526   0.989       .  S
O498        C499   1.280       .  A
C499        C906   1.474       .  S
O500        H519   0.990       .  S
O500        H523   0.991       .  S
O501        H515   0.990       .  S
O501        H522   0.990       .  S
O502        C506   1.291       .  A
O503        C506   1.281       .  A
O504        H514   0.990       .  S
O505        H518   0.990       .  S
C506        C866   1.487       .  S
C529        C530   1.542       .  S
C529        C535   1.527       .  S
C529        C533   1.531       .  S
C529        C909   1.519       .  S
C530        H537   1.077       .  S
C530        C531   1.370       .  D
C531        C532   1.541       .  S
C531        C861   1.491       .  S
C532        C536   1.543       .  S
C532        C534   1.550       .  S
C532        H538   1.110       .  S
C533        H539   1.086       .  S
C533        C534   1.368       .  D
C534        C899   1.488       .  S
C535        H540   1.087       .  S
C535        C536   1.358       .  D
C536        C919   1.483       .  S
C541        C547   1.537       .  S
C541        C545   1.536       .  S
C541        C879   1.517       .  S
C542        H549   1.087       .  S
C542       C1467   1.359       .  D
C543        C544   1.546       .  S
C543       C1466   1.362       .  D
C543        C869   1.491       .  S
C544       C1010   1.541       .  S
C544        H550   1.108       .  S
C545        H551   1.085       .  S
C545       C1470   1.370       .  D
C546       C1469   1.367       .  D
C546        C889   1.490       .  S
C547        H552   1.076       .  S
C547        C548   1.366       .  D
C548       C1006   1.542   1_455  S
C548        C857   1.483   1_455  S
Zr553       O554   2.439       .  S
Zr553       O555   2.443       .  S
Zr553      O1480   2.509       .  S
Zr553      O1485   2.391       .  S
Zr553      O1487   2.416       .  S
O554        H610   0.990       .  S
O554        H618   0.991       .  S
O555        C575   1.287       .  A
O556      Zr1477   2.517   1_455  S
O556        C577   1.301       .  A
O557       Zr567   2.378       .  S
O557        C576   1.274       .  A
O558       Zr566   2.378       .  S
O558        C577   1.275       .  A
O559        C576   1.297   1_545  A
O560       Zr568   2.406       .  S
O560        C575   1.281       .  A
O561      Zr1477   2.386   1_455  S
O561       Zr566   2.382       .  S
O561      Zr1492   2.371   1_455  S
O562       Zr567   2.376   1_545  S
O562        H597   0.964       .  S
O563      Zr1477   2.411   1_455  S
O563       Zr566   2.395       .  S
O563        H600   0.966       .  S
O564       Zr567   2.388       .  S
O564      Zr1507   2.393       .  S
Zr565       O590   2.438       .  S
Zr565       O584   2.429       .  S
Zr565       O592   2.519   1_455  S
Zr565      O1495   2.395   1_455  S
Zr565       O574   2.393       .  S
Zr566       O585   2.437       .  S
Zr566       O578   2.434       .  S
Zr566       O579   2.390       .  S
Zr566       O572   2.388       .  S
Zr566       O573   2.378       .  S
Zr567       O569   2.435       .  S
Zr567       O591   2.440       .  S
Zr567       O593   2.372       .  S
Zr567       O571   2.391       .  S
Zr567      O1498   2.381       .  S
Zr568      O1519   2.435       .  S
Zr568      O1494   2.438       .  S
Zr568      O1485   2.376       .  S
Zr568      O1496   2.388       .  S
O569        H606   0.990       .  S
O570      Zr1492   2.439   1_455  S
O570        H601   0.990       .  S
O570        H615   0.990       .  S
O571      Zr1489   2.409       .  S
O572      Zr1492   2.393   1_455  S
O572        H598   0.965       .  S
O574      Zr1491   2.379   1_455  S
O574       Zr583   2.379       .  S
O574       H1523   0.968   1_455  S
C575        C821   1.476       .  S
C576        C831   1.490       .  S
C577        C838   1.494       .  S
O578        H614   0.990       .  S
O579        C581   1.277       .  A
O580        C581   1.297       .  A
C581        C798   1.492       .  S
O582       Zr583   2.440   1_545  S
O582        H611   0.990   1_545  S
Zr583      O1511   2.441   1_455  S
Zr583       O588   2.410       .  S
Zr583      O1488   2.399   1_455  S
O584        C589   1.285       .  A
O585        H602   0.990       .  S
O585        H617   0.990       .  S
O587      Zr1507   2.440       .  S
O587       H1531   0.990       .  S
O587        H616   0.990       .  S
O588        C589   1.281       .  A
C589        C851   1.473       .  S
O590        H609   0.990       .  S
O590        H613   0.990       .  S
O591        H605   0.990       .  S
O591        H612   0.990       .  S
O592       C1520   1.301       .  A
O593        C596   1.274       .  A
O595      Zr1492   2.434   1_455  S
O595        H608   0.990       .  S
C596       O1516   1.300       .  A
C596        C808   1.492       .  S
H599       O1498   0.967       .  S
H607       O1511   0.989       .  S
C619        C620   1.536       .  S
C619        C625   1.555       .  S
C619        C623   1.543       .  S
C619        C801   1.540       .  S
C620        H627   1.084       .  S
C620        C621   1.367       .  D
C621        C622   1.534       .  S
C621        C793   1.483       .  S
C622        C626   1.532       .  S
C622        C624   1.529       .  S
C622        H628   1.111       .  S
C623        H629   1.084       .  S
C623        C624   1.366       .  D
C624        C818   1.472       .  S
C625        H630   1.085       .  S
C625        C626   1.378       .  D
C626        C811   1.498       .  S
C631        C632   1.558       .  S
C631        C637   1.538       .  S
C631        C635   1.540       .  S
C631        C828   1.541       .  S
C632        H639   1.085       .  S
C632        C633   1.381       .  D
C633        C634   1.534       .  S
C633        C841   1.502       .  S
C634        C638   1.535       .  S
C634        C636   1.529       .  S
C634        H640   1.110       .  S
C635        H641   1.082       .  S
C635        C636   1.361       .  D
C636        C848   1.470       .  S
C637        H642   1.084       .  S
C637        C638   1.366       .  D
C638        C862   1.486       .  S
Zr643       O644   2.441       .  S
Zr643       O645   2.439       .  S
Zr643       O646   2.462       .  S
Zr643       O649   2.443       .  S
Zr643       O651   2.387       .  S
Zr643       O652   2.381       .  S
Zr643       O653   2.407       .  S
Zr643       O654   2.404       .  S
O644        H700   0.990       .  S
O644        H708   0.990       .  S
O645        C665   1.286       .  A
O646        C667   1.289       .  A
O647       Zr657   2.418       .  S
O647        C666   1.283       .  A
O648       Zr656   2.419       .  S
O648        C667   1.282       .  A
O649        C666   1.287       .  A
O650       Zr658   2.401       .  S
O650        C665   1.279       .  A
O651       Zr656   2.390       .  S
O651       Zr658   2.383       .  S
O652       Zr657   2.379       .  S
O652       Zr658   2.379       .  S
O652        H687   0.963       .  S
O653       Zr656   2.402       .  S
O653       Zr673   2.387       .  S
O653        H690   0.965       .  S
O654       Zr657   2.385       .  S
O654       Zr673   2.388       .  S
Zr655       O680   2.442       .  S
Zr655       O674   2.427       .  S
Zr655       O682   2.460       .  S
Zr655       O670   2.450       .  S
Zr655       O661   2.392       .  S
Zr655       O662   2.403       .  S
Zr655       O663   2.380       .  S
Zr655       O664   2.388       .  S
Zr656       O675   2.438       .  S
Zr656       O668   2.435       .  S
Zr656       O669   2.419       .  S
Zr656       O662   2.398       .  S
Zr656       O663   2.387       .  S
Zr657       O659   2.435       .  S
Zr657       O681   2.439       .  S
Zr657       O683   2.397       .  S
Zr657       O661   2.395       .  S
Zr657       O664   2.390       .  S
Zr658       O684   2.436       .  S
Zr658       O685   2.436       .  S
Zr658       O660   2.438       .  S
Zr658       O661   2.385       .  S
Zr658       O662   2.387       .  S
O659        H696   0.990       .  S
O660        H691   0.990       .  S
O660        H705   0.990       .  S
O662        H688   0.966       .  S
O663       Zr673   2.375       .  S
O664       Zr673   2.380       .  S
O664        H689   0.964       .  S
C665        C784   1.477       .  S
C666        C754   1.484       .  S
C667        C744   1.489       .  S
O668        H704   0.990       .  S
O669        C671   1.283       .  A
O670        C671   1.287       .  A
C671        C764   1.485       .  S
O672       Zr673   2.436       .  S
O672        H701   0.990       .  S
Zr673       O676   2.434       .  S
Zr673       O677   2.441       .  S
Zr673       O678   2.397       .  S
O674        C679   1.283       .  A
O675        H692   0.990       .  S
O675        H707   0.990       .  S
O676        H693   0.990       .  S
O677        H697   0.990       .  S
O677        H706   0.989       .  S
O678        C679   1.278       .  A
C679        C734   1.469       .  S
O680        H699   0.991       .  S
O680        H703   0.990       .  S
O681        H695   0.990       .  S
O681        H702   0.990       .  S
O682        C686   1.291       .  A
O683        C686   1.279       .  A
O684        H694   0.990       .  S
O685        H698   0.990       .  S
C686        C774   1.483   1_565  S
C709        C710   1.538       .  S
C709        C713   1.538       .  S
C709        C737   1.516       .  S
C710        H717   1.080       .  S
C710       C1635   1.369       .  D
C711       C1634   1.368   1_455  D
C711        C858   1.487   1_565  S
C712        C716   1.549       .  S
C712        H718   1.109       .  S
C713        H719   1.085       .  S
C713       C1638   1.370       .  D
C714       C1637   1.369   1_455  D
C714        C757   1.493       .  S
C715        H720   1.087       .  S
C715       C1640   1.357       .  D
C716       C1639   1.359   1_455  D
C716        C747   1.491       .  S
C721        C722   1.525       .  S
C721        C727   1.540       .  S
C721        C725   1.534       .  S
C721        C787   1.517       .  S
C722        H729   1.086       .  S
C722        C723   1.360       .  D
C723        C724   1.543       .  S
C723        C777   1.483       .  S
C724        C728   1.538       .  S
C724        C726   1.547       .  S
C724        H730   1.109       .  S
C725        H731   1.086       .  S
C725        C726   1.368       .  D
C726        C767   1.487       .  S
C727        H732   1.077       .  S
C727        C728   1.369       .  D
C728        C794   1.489       .  S
C733        C734   1.402       .  A
C733        C738   1.391       .  A
C733        H739   1.084       .  S
C734        C735   1.401       .  A
C735        C736   1.394       .  A
C735        H740   1.083       .  S
C736        C737   1.409       .  A
C736        H741   1.083       .  S
C737        C738   1.408       .  A
C738        H742   1.079       .  S
C743        C744   1.410       .  A
C743        C748   1.398       .  A
C743        H749   1.083       .  S
C744        C745   1.404       .  A
C745        C746   1.402       .  A
C745        H750   1.083       .  S
C746        C747   1.411       .  A
C746        H751   1.083   1_455  S
C747        C748   1.399       .  A
C748        H752   1.079       .  S
C753        C754   1.404       .  A
C753        C758   1.399       .  A
C753        H759   1.083       .  S
C754        C755   1.407       .  A
C755        C756   1.398       .  A
C755        H760   1.083       .  S
C756        C757   1.404       .  A
C757        C758   1.409       .  A
C758        H762   1.082   1_455  S
C763        C764   1.407       .  A
C763        C768   1.397       .  A
C763        H769   1.083       .  S
C764        C765   1.406       .  A
C765        C766   1.400       .  A
C765        H770   1.083       .  S
C766        C767   1.407       .  A
C766        H771   1.083       .  S
C767        C768   1.402       .  A
C768        H772   1.078       .  S
C773        C778   1.394       .  A
C773        H779   1.083       .  S
C775        C776   1.395       .  A
C776        C777   1.409       .  A
C776        H781   1.082       .  S
C777        C778   1.399       .  A
C778        H782   1.078       .  S
C783       C1708   1.403       .  A
C783        C788   1.394       .  A
C783       H1713   1.083       .  S
C784       C1707   1.401   1_455  A
C784        C785   1.406       .  A
C785       C1710   1.392   1_455  A
C785        H790   1.083       .  S
C786       C1709   1.390       .  A
C786        C787   1.408       .  A
C786        H791   1.077       .  S
C787        C788   1.409       .  A
C788        H792   1.083       .  S
H789       C1707   1.083       .  S
C793        H795   1.081       .  S
C793        C794   1.348       .  D
C794        H796   1.083       .  S
C797        C798   1.410       .  A
C797        C802   1.398       .  A
C797        H803   1.083       .  S
C798        C799   1.403       .  A
C799        C800   1.411       .  A
C799        H804   1.083       .  S
C800        C801   1.419       .  A
C800        H805   1.079       .  S
C801        C802   1.404       .  A
C802        H806   1.083       .  S
C807        C808   1.404       .  A
C807        C812   1.411       .  A
C807       H1737   1.083       .  S
C808        C809   1.412       .  A
C809        C810   1.399       .  A
C809        H814   1.084       .  S
C810        C811   1.402       .  A
C810        H815   1.083       .  S
C811        C812   1.412       .  A
C812        H816   1.083       .  S
H813       C1731   1.083       .  S
C817        C818   1.403       .  A
C817        C822   1.397       .  A
C817        H823   1.083       .  S
C818        C819   1.400       .  A
C819        C820   1.395       .  A
C819        H824   1.084       .  S
C820        C821   1.408       .  A
C820        H825   1.083       .  S
C821        C822   1.405       .  A
C822        H826   1.083       .  S
C827        C828   1.420       .  A
C827        C832   1.407       .  A
C827        H833   1.077       .  S
C828        C829   1.404       .  A
C829        C830   1.399       .  A
C829        H834   1.083       .  S
C830        C831   1.411       .  A
C830        H835   1.083       .  S
C831        C832   1.400       .  A
C832        H836   1.083   1_565  S
C837        C838   1.403       .  A
C837        C842   1.410       .  A
C837        H843   1.083       .  S
C838        C839   1.414       .  A
C839        C840   1.402       .  A
C839        H844   1.084       .  S
C840        C841   1.402       .  A
C840        H845   1.083       .  S
C841        C842   1.413       .  A
C842        H846   1.082       .  S
C847        C848   1.399       .  A
C847        C852   1.395       .  A
C847        H853   1.083       .  S
C848        C849   1.403       .  A
C849        C850   1.394       .  A
C849        H854   1.083       .  S
C850        C851   1.404       .  A
C850        H855   1.083       .  S
C851        C852   1.407       .  A
C852        H856   1.083       .  S
C857        H859   1.081       .  S
C858       H1784   1.081       .  S
H860       C1782   1.082       .  S
C861        H863   1.083       .  S
C861        C862   1.350       .  D
C862        H864   1.082       .  S
C865        C866   1.411       .  A
C865        C870   1.399       .  A
C865        H871   1.083       .  S
C866        C867   1.403       .  A
C867        C868   1.398       .  A
C867        H872   1.083       .  S
C868        C869   1.410       .  A
C868       H1797   1.082       .  S
C869        C870   1.401       .  A
C870        H874   1.080       .  S
H873       C1792   1.082   1_455  S
C875        C876   1.402       .  A
C875        C880   1.393       .  A
C875        H881   1.083       .  S
C876        C877   1.403       .  A
C877        C878   1.390       .  A
C877        H882   1.083       .  S
C878        C879   1.409       .  A
C879        C880   1.408       .  A
C880        H884   1.083       .  S
C885        C886   1.407       .  A
C885        C890   1.397       .  A
C885        H891   1.083       .  S
C886        C887   1.404       .  A
C887        C888   1.400       .  A
C887        H892   1.083       .  S
C888        C889   1.410       .  A
C888       H1817   1.082       .  S
C889        C890   1.402       .  A
H893       C1812   1.082   1_455  S
C895        C896   1.405       .  A
C895        C900   1.399       .  A
C895        H901   1.083       .  S
C896        C897   1.407       .  A
C897        C898   1.395       .  A
C897        H902   1.083       .  S
C898        C899   1.401       .  A
C898        H903   1.077       .  S
C899        C900   1.408       .  A
C900        H904   1.082       .  S
C905       C1830   1.401       .  A
C905        C910   1.394       .  A
C905       H1835   1.083       .  S
C906       C1829   1.402       .  A
C906       C1831   1.405       .  A
C907       C1830   1.405       .  A
C907        C908   1.391       .  A
C907        H912   1.083   1_455  S
C908        C909   1.407       .  A
C908        H913   1.076       .  S
C909        C910   1.410       .  A
C910        H914   1.083       .  S
H911       C1829   1.083       .  S
C915        C916   1.411       .  A
C915        C920   1.395       .  A
C916        C917   1.401       .  A
C917        C918   1.396       .  A
C917        H922   1.083       .  S
C918        C919   1.409       .  A
C918        H923   1.083       .  S
C919        C920   1.398       .  A
C920        H924   1.078       .  S
Zr925       O926   2.439       .  S
Zr925       O927   2.424       .  S
Zr925       O928   2.454       .  S
Zr925       O931   2.440       .  S
Zr925       O933   2.386       .  S
Zr925       O934   2.380       .  S
Zr925       O935   2.401       .  S
Zr925       O936   2.403       .  S
O926        H982   0.990       .  S
O926        H990   0.990       .  S
O927        C947   1.283       .  A
O928        C949   1.288       .  A
O929       Zr939   2.417       .  S
O929        C948   1.282       .  A
O930       Zr938   2.405       .  S
O930        C949   1.280       .  A
O931        C948   1.287       .  A
O932       Zr940   2.408       .  S
O932        C947   1.281       .  A
O933       Zr938   2.388       .  S
O933       Zr940   2.376       .  S
O934       Zr939   2.377       .  S
O934       Zr940   2.374       .  S
O934        H969   0.961       .  S
O935       Zr938   2.399       .  S
O935       Zr955   2.384       .  S
O935        H972   0.966       .  S
O936       Zr939   2.385       .  S
O936       Zr955   2.390       .  S
Zr937       O962   2.440       .  S
Zr937       O956   2.424       .  S
Zr937       O964   2.458       .  S
Zr937       O952   2.456       .  S
Zr937       O943   2.397       .  S
Zr937       O944   2.405       .  S
Zr937       O945   2.380       .  S
Zr937       O946   2.393       .  S
Zr938       O957   2.438       .  S
Zr938       O950   2.435       .  S
Zr938       O951   2.411       .  S
Zr938       O944   2.395       .  S
Zr938       O945   2.384       .  S
Zr939       O941   2.436       .  S
Zr939       O963   2.441       .  S
Zr939       O965   2.400       .  S
Zr939       O943   2.391       .  S
Zr939       O946   2.390       .  S
Zr940       O966   2.435       .  S
Zr940       O967   2.435       .  S
Zr940       O942   2.436       .  S
Zr940       O943   2.387       .  S
Zr940       O944   2.390       .  S
O941        H978   0.990       .  S
O942        H973   0.990       .  S
O942        H987   0.990       .  S
O944        H970   0.966       .  S
O945       Zr955   2.373       .  S
O946       Zr955   2.382       .  S
O946        H971   0.964       .  S
C947       C1338   1.475       .  S
C948       C1358   1.484       .  S
C949       C1840   1.483   1_545  S
O950        H986   0.990   1_545  S
O951        C953   1.281       .  A
O952        C953   1.288       .  A
C953       C1348   1.484       .  S
O954       Zr955   2.435       .  S
O954        H983   0.990       .  S
Zr955       O958   2.434       .  S
Zr955       O959   2.438       .  S
Zr955       O960   2.404       .  S
O956        C961   1.283       .  A
O957        H974   0.990       .  S
O957        H989   0.990       .  S
O958        H975   0.990       .  S
O959        H979   0.990       .  S
O959        H988   0.989       .  S
O960        C961   1.279       .  A
C961       C1368   1.471   1_655  S
O962        H981   0.990       .  S
O962        H985   0.991       .  S
O963        H977   0.990       .  S
O963        H984   0.990       .  S
O964        C968   1.291       .  A
O965        C968   1.280       .  A
O966        H976   0.990       .  S
O967        H980   0.990       .  S
C968       C1328   1.485       .  S
C991        C992   1.543       .  S
C991        C997   1.526       .  S
C991        C995   1.530       .  S
C991       C1371   1.517       .  S
C992        H999   1.077       .  S
C992        C993   1.369       .  D
C993        C994   1.536       .  S
C993       C1323   1.487       .  S
C994        C998   1.543       .  S
C994        C996   1.549       .  S
C994       H1000   1.109       .  S
C995       H1001   1.086       .  S
C995        C996   1.368       .  D
C996       C1361   1.486       .  S
C997       H1002   1.086       .  S
C997        C998   1.359       .  D
C998       C1381   1.484       .  S
C1003      C1466   1.529   1_545  S
C1003      C1009   1.543       .  S
C1003      C1007   1.534       .  S
C1003      C1341   1.522       .  S
C1004      C1465   1.526       .  S
C1004      H1011   1.087       .  S
C1005      C1006   1.546   1_455  S
C1005      C1331   1.485   1_455  S
C1006      C1470   1.550   1_655  S
C1006      H1012   1.109       .  S
C1007      H1013   1.085       .  S
C1008      C1468   1.549   1_445  S
C1008      C1351   1.491   1_455  S
C1009      H1014   1.076       .  S
C1009      C1010   1.367   1_545  D
C1010      C1319   1.488       .  S
Zr1015     O1016   2.438       .  S
Zr1015     O1017   2.434       .  S
Zr1015     O1483   2.488       .  S
Zr1015     O1486   2.387       .  S
Zr1015     O1488   2.415   1_545  S
O1016      H1072   0.990       .  S
O1016      H1080   0.991       .  S
O1017      C1037   1.285       .  A
O1018      C1039   1.298       .  A
O1019     Zr1029   2.389       .  S
O1019      C1038   1.277       .  A
O1020     Zr1028   2.374       .  S
O1020      C1039   1.274       .  A
O1021     Zr1477   2.489       .  S
O1021      C1038   1.296       .  A
O1022     Zr1030   2.412       .  S
O1022      C1037   1.281       .  A
O1023     Zr1028   2.383       .  S
O1024     Zr1477   2.389       .  S
O1024     Zr1029   2.379       .  S
O1024     Zr1492   2.374       .  S
O1024      H1059   0.964       .  S
O1025     Zr1028   2.400       .  S
O1025     Zr1507   2.390   1_545  S
O1025      H1062   0.966       .  S
O1026     Zr1477   2.415       .  S
O1026     Zr1029   2.383       .  S
Zr1027     O1052   2.438       .  S
Zr1027     O1046   2.430       .  S
Zr1027     O1054   2.513       .  S
Zr1027     O1504   2.503       .  S
Zr1027     O1496   2.413       .  S
Zr1027     O1497   2.387       .  S
Zr1027     O1036   2.394       .  S
Zr1028     O1047   2.439       .  S
Zr1028     O1040   2.436       .  S
Zr1028     O1041   2.388       .  S
Zr1028     O1034   2.387       .  S
Zr1028     O1035   2.378       .  S
Zr1029     O1031   2.435       .  S
Zr1029     O1053   2.439       .  S
Zr1029     O1055   2.376       .  S
Zr1029     O1033   2.388       .  S
Zr1030     O1518   2.436   1_545  S
Zr1030     O1486   2.378       .  S
Zr1030     O1495   2.387   1_545  S
O1031      H1068   0.990       .  S
O1032      H1063   0.990       .  S
O1032      H1077   0.990       .  S
O1033     Zr1492   2.397       .  S
O1034     Zr1489   2.414   1_545  S
O1034      H1060   0.964       .  S
O1035     Zr1489   2.384   1_545  S
O1035     Zr1507   2.375   1_545  S
O1036     Zr1045   2.378       .  S
C1037      C1283   1.475       .  S
C1038      C1293   1.485       .  S
C1039      C1300   1.489       .  S
O1040      H1076   0.990       .  S
O1041      C1043   1.277       .  A
O1042     Zr1489   2.502   1_545  S
O1042      C1043   1.297       .  A
C1043      C1260   1.493       .  S
O1044     Zr1045   2.438       .  S
O1044      H1073   0.990       .  S
Zr1045     O1510   2.437       .  S
Zr1045     O1050   2.410       .  S
Zr1045     O1487   2.389       .  S
Zr1045     O1497   2.375       .  S
O1046      C1051   1.285       .  A
O1047      H1064   0.990       .  S
O1047      H1079   0.990       .  S
O1048     Zr1507   2.437   1_545  S
O1048      H1527   0.990       .  S
O1049      H1078   0.989       .  S
O1050      C1051   1.281       .  A
C1051      C1313   1.470       .  S
O1052      H1071   0.990       .  S
O1052      H1075   0.990       .  S
O1053      H1067   0.990       .  S
O1053      H1074   0.990       .  S
O1055      C1058   1.275       .  A
O1056     Zr1492   2.433       .  S
O1056      H1528   0.990       .  S
O1057      H1070   0.990       .  S
C1058      C1270   1.493       .  S
H1065      O1510   0.990       .  S
H1066      O1518   0.990   1_545  S
C1081      C1082   1.534       .  S
C1081      C1087   1.556       .  S
C1081      C1085   1.541       .  S
C1081      C1263   1.536       .  S
C1082      H1089   1.084       .  S
C1082      C1083   1.365       .  D
C1083      C1084   1.537       .  S
C1083      C1255   1.485       .  S
C1084      C1088   1.531       .  S
C1084      C1086   1.532       .  S
C1084      H1090   1.111       .  S
C1085      H1091   1.084       .  S
C1085      C1086   1.365       .  D
C1086      C1280   1.474       .  S
C1087      H1092   1.085       .  S
C1087      C1088   1.378       .  D
C1088      C1273   1.497       .  S
C1093      C1094   1.554       .  S
C1093      C1099   1.539       .  S
C1093      C1097   1.542       .  S
C1093      C1290   1.541       .  S
C1094      H1101   1.085       .  S
C1094      C1095   1.380       .  D
C1095      C1096   1.530       .  S
C1095      C1303   1.495       .  S
C1096      C1100   1.532       .  S
C1096      C1098   1.528       .  S
C1096      H1102   1.110       .  S
C1097      H1103   1.080       .  S
C1097      C1098   1.361       .  D
C1098      C1310   1.472       .  S
C1099      H1104   1.084       .  S
C1099      C1100   1.367       .  D
C1100      C1324   1.483       .  S
Zr1105     O1106   2.440       .  S
Zr1105     O1107   2.428       .  S
Zr1105     O1108   2.471       .  S
Zr1105     O1111   2.437       .  S
Zr1105     O1113   2.385       .  S
Zr1105     O1114   2.390       .  S
Zr1105     O1115   2.398       .  S
Zr1105     O1116   2.407       .  S
O1106      H1162   0.990       .  S
O1106      H1170   0.990       .  S
O1107      C1127   1.284       .  A
O1108      C1129   1.292       .  A
O1109     Zr1119   2.427       .  S
O1109      C1128   1.284       .  A
O1110     Zr1118   2.408       .  S
O1110      C1129   1.280       .  A
O1111      C1128   1.286       .  A
O1112     Zr1120   2.399       .  S
O1112      C1127   1.279       .  A
O1113     Zr1118   2.390       .  S
O1113     Zr1120   2.380       .  S
O1114     Zr1119   2.380       .  S
O1114     Zr1120   2.379       .  S
O1114      H1149   0.964       .  S
O1115     Zr1118   2.399       .  S
O1115     Zr1135   2.392       .  S
O1115      H1152   0.966       .  S
O1116     Zr1119   2.386       .  S
O1116     Zr1135   2.386       .  S
Zr1117     O1142   2.439       .  S
Zr1117     O1136   2.420       .  S
Zr1117     O1144   2.451       .  S
Zr1117     O1132   2.462       .  S
Zr1117     O1123   2.399       .  S
Zr1117     O1124   2.400       .  S
Zr1117     O1125   2.377       .  S
Zr1117     O1126   2.392       .  S
Zr1118     O1137   2.436       .  S
Zr1118     O1130   2.435       .  S
Zr1118     O1131   2.410       .  S
Zr1118     O1124   2.397       .  S
Zr1118     O1125   2.381       .  S
Zr1119     O1121   2.436       .  S
Zr1119     O1143   2.439       .  S
Zr1119     O1145   2.406       .  S
Zr1119     O1123   2.394       .  S
Zr1119     O1126   2.388       .  S
Zr1120     O1146   2.434       .  S
Zr1120     O1147   2.435       .  S
Zr1120     O1122   2.436       .  S
Zr1120     O1123   2.384       .  S
Zr1120     O1124   2.385       .  S
O1121      H1158   0.990       .  S
O1122      H1153   0.990       .  S
O1122      H1167   0.990       .  S
O1124      H1150   0.967       .  S
O1125     Zr1135   2.376       .  S
O1126     Zr1135   2.377       .  S
O1126      H1151   0.965       .  S
C1127      C1246   1.472       .  S
C1128      C1216   1.485       .  S
C1129      C1206   1.490       .  S
O1130      H1166   0.990       .  S
O1131      C1133   1.281       .  A
O1132      C1133   1.290       .  A
C1133      C1226   1.487       .  S
O1134     Zr1135   2.437       .  S
O1134      H1163   0.990       .  S
Zr1135     O1138   2.435       .  S
Zr1135     O1139   2.440       .  S
Zr1135     O1140   2.395       .  S
O1136      C1141   1.282       .  A
O1137      H1154   0.990       .  S
O1137      H1169   0.990       .  S
O1138      H1155   0.990       .  S
O1139      H1159   0.990       .  S
O1139      H1168   0.990       .  S
O1140      C1141   1.278       .  A
C1141      C1196   1.467       .  S
O1142      H1161   0.990       .  S
O1142      H1165   0.990       .  S
O1143      H1157   0.990       .  S
O1143      H1164   0.990       .  S
O1144      C1148   1.289       .  A
O1145      C1148   1.281       .  A
O1146      H1156   0.990       .  S
O1147      H1160   0.990       .  S
C1148      C1236   1.484       .  S
C1171      C1172   1.536       .  S
C1171      C1639   1.528       .  S
C1171      C1175   1.534       .  S
C1171      C1199   1.515       .  S
C1172      H1179   1.075       .  S
C1173      C1636   1.542       .  S
C1173      C1320   1.488       .  S
C1174      C1635   1.546   1_545  S
C1174      C1178   1.550       .  S
C1174      C1638   1.550   1_545  S
C1174      H1180   1.109       .  S
C1175      H1181   1.086       .  S
C1176      C1636   1.545       .  S
C1176      C1219   1.489       .  S
C1177      C1633   1.527   1_545  S
C1177      H1182   1.087       .  S
C1178      C1209   1.490       .  S
C1183      C1184   1.522       .  S
C1183      C1189   1.537       .  S
C1183      C1187   1.533       .  S
C1183      C1249   1.515       .  S
C1184      H1191   1.087       .  S
C1184      C1185   1.355       .  D
C1185      C1186   1.546       .  S
C1185      C1239   1.482       .  S
C1186      C1190   1.544       .  S
C1186      C1188   1.553       .  S
C1186      H1192   1.110       .  S
C1187      H1193   1.085       .  S
C1187      C1188   1.370       .  D
C1188      C1229   1.494       .  S
C1189      H1194   1.076       .  S
C1189      C1190   1.369       .  D
C1190      C1256   1.493       .  S
C1195      C1196   1.402       .  A
C1195      C1200   1.388       .  A
C1195      H1201   1.083       .  S
C1196      C1197   1.401       .  A
C1197      C1198   1.392       .  A
C1197      H1202   1.083       .  S
C1198      C1199   1.408       .  A
C1198      H1203   1.083       .  S
C1199      C1200   1.409       .  A
C1200      H1204   1.075       .  S
C1205      C1206   1.413       .  A
C1205      C1210   1.399       .  A
C1205      H1211   1.083       .  S
C1206      C1207   1.403       .  A
C1207      C1208   1.401       .  A
C1207      H1212   1.083       .  S
C1208      C1209   1.411       .  A
C1208      H1213   1.083       .  S
C1209      C1210   1.399       .  A
C1210      H1214   1.080       .  S
C1215      C1216   1.406       .  A
C1215      C1220   1.401       .  A
C1215      H1221   1.083       .  S
C1216      C1217   1.407       .  A
C1217      C1218   1.395       .  A
C1217      H1222   1.083       .  S
C1218      C1219   1.401       .  A
C1218      H1685   1.078       .  S
C1219      C1220   1.409       .  A
C1220      H1224   1.083       .  S
H1223      C1680   1.079   1_545  S
C1225      C1226   1.409       .  A
C1225      C1230   1.399       .  A
C1225      H1231   1.083       .  S
C1226      C1227   1.404       .  A
C1227      C1228   1.401       .  A
C1227      H1232   1.083       .  S
C1228      C1229   1.411       .  A
C1228      H1233   1.082       .  S
C1229      C1230   1.402       .  A
C1230      H1234   1.079       .  S
C1235      C1698   1.411       .  A
C1235      C1240   1.395       .  A
C1235      H1241   1.083       .  S
C1236      C1697   1.410       .  A
C1236      C1699   1.404       .  A
C1237      C1698   1.402       .  A
C1237      C1238   1.397       .  A
C1237      H1704   1.083       .  S
C1238      C1239   1.410       .  A
C1238      H1243   1.083       .  S
C1239      C1240   1.397       .  A
C1240      H1244   1.080       .  S
H1242      C1699   1.083       .  S
C1245      C1250   1.393       .  A
C1246      C1247   1.404       .  A
C1247      H1252   1.083       .  S
C1248      C1249   1.408       .  A
C1248      H1253   1.077       .  S
C1249      C1250   1.408       .  A
C1250      H1254   1.083       .  S
C1255      H1257   1.080       .  S
C1255      C1256   1.352       .  D
C1256      H1258   1.083       .  S
C1259      C1260   1.410       .  A
C1259      C1264   1.396       .  A
C1259      H1265   1.083       .  S
C1260      C1261   1.403       .  A
C1261      C1262   1.410       .  A
C1261      H1266   1.083       .  S
C1262      C1263   1.418       .  A
C1262      H1267   1.080       .  S
C1263      C1264   1.403       .  A
C1264      H1268   1.083       .  S
C1269      C1270   1.405       .  A
C1269      C1274   1.412       .  A
C1270      C1271   1.412       .  A
C1271      C1272   1.399       .  A
C1271      H1276   1.084       .  S
C1272      C1273   1.401       .  A
C1272      H1277   1.083       .  S
C1273      C1274   1.412       .  A
C1274      H1278   1.083       .  S
C1279      C1280   1.404       .  A
C1279      C1284   1.398       .  A
C1279      H1285   1.083       .  S
C1280      C1281   1.399       .  A
C1281      C1282   1.394       .  A
C1281      H1286   1.083       .  S
C1282      C1283   1.406       .  A
C1282      H1287   1.083       .  S
C1283      C1284   1.405       .  A
C1284      H1288   1.083       .  S
C1289      C1290   1.419       .  A
C1289      C1294   1.404       .  A
C1289      H1295   1.075       .  S
C1290      C1291   1.407       .  A
C1291      C1292   1.400       .  A
C1291      H1296   1.083       .  S
C1292      C1293   1.408       .  A
C1292      H1297   1.083       .  S
C1293      C1294   1.399       .  A
C1294      H1298   1.083       .  S
C1299      C1300   1.404       .  A
C1299      C1304   1.410       .  A
C1299      H1305   1.083       .  S
C1300      C1301   1.411       .  A
C1301      C1302   1.396       .  A
C1301      H1306   1.084       .  S
C1302      C1303   1.399       .  A
C1302      H1307   1.083       .  S
C1303      C1304   1.414       .  A
C1304      H1308   1.082       .  S
C1309      C1310   1.400       .  A
C1309      C1314   1.395       .  A
C1309      H1315   1.083       .  S
C1310      C1311   1.404       .  A
C1311      C1312   1.394       .  A
C1311      H1316   1.083       .  S
C1312      C1313   1.404       .  A
C1312      H1317   1.083       .  S
C1313      C1314   1.405       .  A
C1314      H1318   1.083       .  S
C1319      H1321   1.081       .  S
C1319      C1782   1.353   1_566  D
C1320      C1781   1.351   1_554  D
C1323      H1325   1.083       .  S
C1323      C1324   1.347       .  D
C1324      H1326   1.082       .  S
C1327      C1328   1.412       .  A
C1327      C1332   1.396       .  A
C1327      H1333   1.083       .  S
C1328      C1329   1.402       .  A
C1329      C1330   1.399       .  A
C1329      H1334   1.083       .  S
C1330      C1331   1.410       .  A
C1331      C1332   1.398       .  A
C1332      H1336   1.080       .  S
C1337      C1338   1.403       .  A
C1337      C1342   1.395       .  A
C1337      H1343   1.083       .  S
C1338      C1339   1.404       .  A
C1339      C1340   1.391       .  A
C1339      H1344   1.083       .  S
C1340      C1341   1.408       .  A
C1340      H1807   1.075       .  S
C1341      C1342   1.410       .  A
C1342      H1346   1.083       .  S
H1345      C1802   1.076       .  S
C1347      C1348   1.408       .  A
C1347      C1352   1.397       .  A
C1347      H1353   1.083       .  S
C1348      C1349   1.404       .  A
C1349      C1350   1.399       .  A
C1349      H1354   1.083       .  S
C1350      C1351   1.409       .  A
C1351      C1352   1.402       .  A
C1352      H1818   1.078   1_545  S
H1356      C1814   1.079       .  S
C1357      C1358   1.404       .  A
C1357      C1362   1.398       .  A
C1357      H1363   1.083       .  S
C1358      C1359   1.409       .  A
C1359      C1360   1.397       .  A
C1359      H1364   1.083       .  S
C1360      C1361   1.401       .  A
C1360      H1365   1.080       .  S
C1361      C1362   1.407       .  A
C1362      H1366   1.082       .  S
C1367      C1372   1.394       .  A
C1369      C1370   1.389       .  A
C1369      H1374   1.083       .  S
C1370      C1371   1.407       .  A
C1370      H1375   1.076       .  S
C1371      C1372   1.410       .  A
C1372      H1376   1.083       .  S
C1377      C1378   1.409       .  A
C1377      C1382   1.394       .  A
C1377      H1845   1.083       .  S
C1378      C1411   1.473       .  S
C1378      C1379   1.399       .  A
C1379      C1380   1.394       .  A
C1379      H1384   1.083       .  S
C1380      C1381   1.411       .  A
C1380      H1385   1.082       .  S
C1381      C1382   1.399       .  A
C1382      H1386   1.080       .  S
H1383      C1839   1.083       .  S
Zr1387     O1388   2.441       .  S
Zr1387     O1389   2.425       .  S
Zr1387     O1390   2.452       .  S
Zr1387     O1393   2.443       .  S
Zr1387     O1395   2.387       .  S
Zr1387     O1396   2.384       .  S
Zr1387     O1397   2.403       .  S
Zr1387     O1398   2.402       .  S
O1388      H1444   0.990       .  S
O1388      H1452   0.990       .  S
O1389      C1409   1.283       .  A
O1390      C1411   1.288       .  A
O1391     Zr1401   2.417       .  S
O1391      C1410   1.282       .  A
O1392     Zr1400   2.395       .  S
O1392      C1411   1.278       .  A
O1393      C1410   1.287       .  A
O1394     Zr1402   2.401       .  S
O1394      C1409   1.279       .  A
O1395     Zr1400   2.392       .  S
O1395     Zr1402   2.377       .  S
O1396     Zr1401   2.378       .  S
O1396     Zr1402   2.379       .  S
O1396      H1431   0.962       .  S
O1397     Zr1400   2.400       .  S
O1397     Zr1417   2.383       .  S
O1397      H1434   0.965       .  S
O1398     Zr1401   2.383       .  S
O1398     Zr1417   2.387       .  S
Zr1399     O1424   2.438       .  S
Zr1399     O1418   2.429       .  S
Zr1399     O1426   2.450       .  S
Zr1399     O1414   2.455       .  S
Zr1399     O1405   2.393       .  S
Zr1399     O1406   2.402       .  S
Zr1399     O1407   2.378       .  S
Zr1399     O1408   2.391       .  S
Zr1400     O1419   2.438       .  S
Zr1400     O1412   2.435       .  S
Zr1400     O1413   2.419       .  S
Zr1400     O1406   2.390       .  S
Zr1400     O1407   2.380       .  S
Zr1401     O1403   2.436       .  S
Zr1401     O1425   2.438       .  S
Zr1401     O1427   2.395       .  S
Zr1401     O1405   2.389       .  S
Zr1401     O1408   2.388       .  S
Zr1402     O1428   2.434       .  S
Zr1402     O1429   2.436       .  S
Zr1402     O1404   2.437       .  S
Zr1402     O1405   2.382       .  S
Zr1402     O1406   2.390       .  S
O1403      H1440   0.990       .  S
O1404      H1435   0.990       .  S
O1404      H1449   0.990       .  S
O1406      H1432   0.966       .  S
O1407     Zr1417   2.379       .  S
O1408     Zr1417   2.379       .  S
O1408      H1433   0.964       .  S
C1409      C1800   1.472       .  S
C1410      C1820   1.484       .  S
O1412      H1448   0.990       .  S
O1413      C1415   1.283       .  A
O1414      C1415   1.289       .  A
C1415      C1810   1.487       .  S
O1416     Zr1417   2.436       .  S
O1416      H1445   0.990       .  S
Zr1417     O1420   2.434       .  S
Zr1417     O1421   2.441       .  S
Zr1417     O1422   2.400       .  S
O1418      C1423   1.285       .  A
O1419      H1436   0.990       .  S
O1419      H1451   0.990       .  S
O1420      H1437   0.990       .  S
O1421      H1441   0.990       .  S
O1421      H1450   0.990       .  S
O1422      C1423   1.279       .  A
C1423      C1830   1.473   1_655  S
O1424      H1443   0.990       .  S
O1424      H1447   0.990       .  S
O1425      H1439   0.990       .  S
O1425      H1446   0.990       .  S
O1426      C1430   1.289       .  A
O1427      C1430   1.278       .  A
O1428      H1438   0.990       .  S
O1429      H1442   0.990       .  S
C1430      C1790   1.479       .  S
C1453      C1454   1.542       .  S
C1453      C1459   1.528       .  S
C1453      C1457   1.531       .  S
C1453      C1833   1.519       .  S
C1454      H1461   1.078       .  S
C1454      C1455   1.370       .  D
C1455      C1456   1.541       .  S
C1455      C1785   1.490       .  S
C1456      C1460   1.545       .  S
C1456      C1458   1.549       .  S
C1456      H1462   1.110       .  S
C1457      H1463   1.086       .  S
C1457      C1458   1.368       .  D
C1458      C1823   1.491       .  S
C1459      H1464   1.087       .  S
C1459      C1460   1.358       .  D
C1460      C1843   1.483       .  S
C1465      C1471   1.543       .  S
C1465      C1469   1.532       .  S
C1465      C1803   1.518       .  S
C1466      H1473   1.086       .  S
C1467      C1468   1.545   1_455  S
C1467      C1793   1.484   1_455  S
C1468      H1474   1.109       .  S
C1469      H1475   1.086       .  S
C1470      C1813   1.495   1_455  S
C1471      H1476   1.076       .  S
C1471      C1472   1.369       .  D
C1472      C1781   1.489       .  S
Zr1477     O1478   2.438       .  S
Zr1477     O1479   2.435       .  S
O1478      H1534   0.990       .  S
O1478      H1542   0.990       .  S
O1479      C1499   1.285       .  A
O1480      C1501   1.298       .  A
O1481     Zr1491   2.392       .  S
O1481      C1500   1.278       .  A
O1482     Zr1490   2.387       .  S
O1482      C1501   1.276       .  A
O1483      C1500   1.295   1_545  A
O1484     Zr1492   2.410       .  S
O1484      C1499   1.281       .  A
O1485     Zr1490   2.382       .  S
O1486     Zr1491   2.381   1_545  S
O1486      H1521   0.965   1_545  S
O1487     Zr1490   2.394       .  S
O1487      H1524   0.965       .  S
O1488     Zr1491   2.384       .  S
Zr1489     O1514   2.438       .  S
Zr1489     O1508   2.444       .  S
Zr1489     O1516   2.512       .  S
Zr1489     O1498   2.391       .  S
Zr1490     O1509   2.440       .  S
Zr1490     O1502   2.436       .  S
Zr1490     O1503   2.387       .  S
Zr1490     O1496   2.391       .  S
Zr1490     O1497   2.379       .  S
Zr1491     O1493   2.435       .  S
Zr1491     O1515   2.439       .  S
Zr1491     O1517   2.372       .  S
Zr1491     O1495   2.393       .  S
O1493      H1530   0.990       .  S
O1494      H1525   0.990       .  S
O1494      H1539   0.990       .  S
O1496      H1522   0.965       .  S
O1498     Zr1507   2.377       .  S
C1499      C1745   1.472       .  S
C1500      C1755   1.491       .  S
C1501      C1762   1.492       .  S
O1502      H1538   0.990       .  S
O1503      C1505   1.277       .  A
O1504      C1505   1.297       .  A
C1505      C1722   1.494       .  S
O1506     Zr1507   2.438       .  S
O1506      H1535   0.991       .  S
Zr1507     O1512   2.405       .  S
O1508      C1513   1.287       .  A
O1509      H1526   0.990       .  S
O1509      H1541   0.990       .  S
O1511      H1540   0.990       .  S
O1512      C1513   1.280       .  A
C1513      C1775   1.476       .  S
O1514      H1533   0.990       .  S
O1514      H1537   0.990       .  S
O1515      H1529   0.990       .  S
O1515      H1536   0.990       .  S
O1517      C1520   1.274       .  A
O1519      H1532   0.990       .  S
C1520      C1732   1.493       .  S
C1543      C1544   1.533       .  S
C1543      C1549   1.557       .  S
C1543      C1547   1.541       .  S
C1543      C1725   1.539       .  S
C1544      H1551   1.084       .  S
C1544      C1545   1.365       .  D
C1545      C1546   1.535       .  S
C1545      C1717   1.482       .  S
C1546      C1550   1.530       .  S
C1546      C1548   1.532       .  S
C1546      H1552   1.111       .  S
C1547      H1553   1.083       .  S
C1547      C1548   1.365       .  D
C1548      C1742   1.475       .  S
C1549      H1554   1.085       .  S
C1549      C1550   1.379       .  D
C1550      C1735   1.497       .  S
C1555      C1556   1.556       .  S
C1555      C1561   1.537       .  S
C1555      C1559   1.544       .  S
C1555      C1752   1.539       .  S
C1556      H1563   1.086       .  S
C1556      C1557   1.378       .  D
C1557      C1558   1.530       .  S
C1557      C1765   1.494       .  S
C1558      C1562   1.534       .  S
C1558      C1560   1.532       .  S
C1558      H1564   1.110       .  S
C1559      H1565   1.083       .  S
C1559      C1560   1.366       .  D
C1560      C1772   1.478       .  S
C1561      H1566   1.085       .  S
C1561      C1562   1.365       .  D
C1562      C1786   1.485       .  S
Zr1567     O1568   2.440       .  S
Zr1567     O1569   2.425       .  S
Zr1567     O1570   2.459       .  S
Zr1567     O1573   2.449       .  S
Zr1567     O1575   2.389       .  S
Zr1567     O1576   2.381       .  S
Zr1567     O1577   2.403       .  S
Zr1567     O1578   2.404       .  S
O1568      H1624   0.990       .  S
O1568      H1632   0.990       .  S
O1569      C1589   1.282       .  A
O1570      C1591   1.289       .  A
O1571     Zr1581   2.420       .  S
O1571      C1590   1.283       .  A
O1572     Zr1580   2.409       .  S
O1572      C1591   1.281       .  A
O1573      C1590   1.288       .  A
O1574     Zr1582   2.402       .  S
O1574      C1589   1.279       .  A
O1575     Zr1580   2.396       .  S
O1575     Zr1582   2.380       .  S
O1576     Zr1581   2.379       .  S
O1576     Zr1582   2.380       .  S
O1576      H1611   0.963       .  S
O1577     Zr1580   2.405       .  S
O1577     Zr1597   2.385       .  S
O1577      H1614   0.964       .  S
O1578     Zr1581   2.387       .  S
O1578     Zr1597   2.395       .  S
Zr1579     O1604   2.440       .  S
Zr1579     O1598   2.421       .  S
Zr1579     O1606   2.449       .  S
Zr1579     O1594   2.449       .  S
Zr1579     O1585   2.395       .  S
Zr1579     O1586   2.402       .  S
Zr1579     O1587   2.376       .  S
Zr1579     O1588   2.388       .  S
Zr1580     O1599   2.436       .  S
Zr1580     O1592   2.434       .  S
Zr1580     O1593   2.422       .  S
Zr1580     O1586   2.395       .  S
Zr1580     O1587   2.382       .  S
Zr1581     O1583   2.435       .  S
Zr1581     O1605   2.439       .  S
Zr1581     O1607   2.397       .  S
Zr1581     O1585   2.392       .  S
Zr1581     O1588   2.387       .  S
Zr1582     O1608   2.436       .  S
Zr1582     O1609   2.437       .  S
Zr1582     O1584   2.436       .  S
Zr1582     O1585   2.385       .  S
Zr1582     O1586   2.389       .  S
O1583      H1620   0.990   1_565  S
O1584      H1615   0.990       .  S
O1584      H1629   0.990       .  S
O1586      H1612   0.966       .  S
O1587     Zr1597   2.373       .  S
O1588     Zr1597   2.380       .  S
O1588      H1613   0.964       .  S
C1589      C1708   1.472       .  S
C1590      C1678   1.489       .  S
C1591      C1668   1.484       .  S
O1592      H1628   0.990       .  S
O1593      C1595   1.284       .  A
O1594      C1595   1.287       .  A
C1595      C1688   1.487       .  S
O1596     Zr1597   2.437       .  S
O1596      H1625   0.990       .  S
Zr1597     O1600   2.436       .  S
Zr1597     O1601   2.444       .  S
Zr1597     O1602   2.402       .  S
O1598      C1603   1.282       .  A
O1599      H1616   0.990       .  S
O1599      H1631   0.990       .  S
O1600      H1617   0.990       .  S
O1601      H1621   0.990       .  S
O1601      H1630   0.989       .  S
O1602      C1603   1.279       .  A
C1603      C1658   1.473       .  S
O1604      H1623   0.990       .  S
O1604      H1627   0.990       .  S
O1605      H1619   0.990       .  S
O1605      H1626   0.990       .  S
O1606      C1610   1.289       .  A
O1607      C1610   1.279       .  A
O1608      H1618   0.990       .  S
O1609      H1622   0.990       .  S
C1610      C1698   1.480   1_565  S
C1633      C1634   1.541       .  S
C1633      C1637   1.534       .  S
C1633      C1661   1.518       .  S
C1634      H1641   1.076       .  S
C1635      C1782   1.490   1_565  S
C1636      C1640   1.544       .  S
C1636      H1642   1.110       .  S
C1637      H1643   1.086       .  S
C1638      C1681   1.495       .  S
C1639      H1644   1.087       .  S
C1640      C1671   1.482       .  S
C1645      C1646   1.528       .  S
C1645      C1651   1.540       .  S
C1645      C1649   1.536       .  S
C1645      C1711   1.521       .  S
C1646      H1653   1.087       .  S
C1646      C1647   1.357       .  D
C1647      C1648   1.542       .  S
C1647      C1701   1.478       .  S
C1648      C1652   1.541       .  S
C1648      C1650   1.548       .  S
C1648      H1654   1.109       .  S
C1649      H1655   1.086       .  S
C1649      C1650   1.369       .  D
C1650      C1691   1.495       .  S
C1651      H1656   1.075       .  S
C1651      C1652   1.371       .  D
C1652      C1718   1.488       .  S
C1657      C1658   1.404       .  A
C1657      C1662   1.390       .  A
C1657      H1663   1.083       .  S
C1658      C1659   1.402       .  A
C1659      C1660   1.393       .  A
C1659      H1664   1.083       .  S
C1660      C1661   1.410       .  A
C1660      H1665   1.083       .  S
C1661      C1662   1.406       .  A
C1662      H1666   1.076       .  S
C1667      C1668   1.410       .  A
C1667      C1672   1.397       .  A
C1667      H1673   1.083       .  S
C1668      C1669   1.404       .  A
C1669      C1670   1.399       .  A
C1669      H1674   1.083       .  S
C1670      C1671   1.407       .  A
C1670      H1675   1.083       .  S
C1671      C1672   1.398       .  A
C1672      H1676   1.078       .  S
C1677      C1678   1.406       .  A
C1677      C1682   1.402       .  A
C1677      H1683   1.083       .  S
C1678      C1679   1.408       .  A
C1679      C1680   1.399       .  A
C1679      H1684   1.083       .  S
C1680      C1681   1.403       .  A
C1681      C1682   1.410       .  A
C1682      H1686   1.082       .  S
C1687      C1688   1.406       .  A
C1687      C1692   1.398       .  A
C1687      H1693   1.083       .  S
C1688      C1689   1.406       .  A
C1689      C1690   1.402       .  A
C1689      H1694   1.083       .  S
C1690      C1691   1.410       .  A
C1690      H1695   1.082       .  S
C1691      C1692   1.404       .  A
C1692      H1696   1.078       .  S
C1697      C1702   1.395       .  A
C1697      H1703   1.083       .  S
C1699      C1700   1.399       .  A
C1700      C1701   1.407       .  A
C1700      H1705   1.083       .  S
C1701      C1702   1.397       .  A
C1702      H1706   1.079       .  S
C1707      C1712   1.394       .  A
C1708      C1709   1.402       .  A
C1709      H1714   1.083       .  S
C1710      C1711   1.407       .  A
C1710      H1715   1.076       .  S
C1711      C1712   1.410       .  A
C1712      H1716   1.083       .  S
C1717      H1719   1.080       .  S
C1717      C1718   1.349       .  D
C1718      H1720   1.083       .  S
C1721      C1722   1.412       .  A
C1721      C1726   1.399       .  A
C1721      H1727   1.083       .  S
C1722      C1723   1.402       .  A
C1723      C1724   1.409       .  A
C1723      H1728   1.083       .  S
C1724      C1725   1.419       .  A
C1724      H1729   1.079       .  S
C1725      C1726   1.404       .  A
C1726      H1730   1.083       .  S
C1731      C1732   1.406       .  A
C1731      C1736   1.413       .  A
C1732      C1733   1.412       .  A
C1733      C1734   1.400       .  A
C1733      H1738   1.084       .  S
C1734      C1735   1.400       .  A
C1734      H1739   1.083       .  S
C1735      C1736   1.412       .  A
C1736      H1740   1.083       .  S
C1741      C1742   1.405       .  A
C1741      C1746   1.396       .  A
C1741      H1747   1.083       .  S
C1742      C1743   1.401       .  A
C1743      C1744   1.393       .  A
C1743      H1748   1.083       .  S
C1744      C1745   1.405       .  A
C1744      H1749   1.083       .  S
C1745      C1746   1.404       .  A
C1746      H1750   1.083       .  S
C1751      C1752   1.418       .  A
C1751      C1756   1.409       .  A
C1751      H1757   1.079       .  S
C1752      C1753   1.405       .  A
C1753      C1754   1.398       .  A
C1753      H1758   1.083       .  S
C1754      C1755   1.409       .  A
C1754      H1759   1.083       .  S
C1755      C1756   1.403       .  A
C1756      H1760   1.083   1_565  S
C1761      C1762   1.405       .  A
C1761      C1766   1.409       .  A
C1761      H1767   1.083       .  S
C1762      C1763   1.412       .  A
C1763      C1764   1.399       .  A
C1763      H1768   1.083       .  S
C1764      C1765   1.400       .  A
C1764      H1769   1.083       .  S
C1765      C1766   1.411       .  A
C1766      H1770   1.083       .  S
C1771      C1772   1.400       .  A
C1771      C1776   1.395       .  A
C1771      H1777   1.083       .  S
C1772      C1773   1.406       .  A
C1773      C1774   1.398       .  A
C1773      H1778   1.083       .  S
C1774      C1775   1.404       .  A
C1774      H1779   1.083       .  S
C1775      C1776   1.407       .  A
C1776      H1780   1.083       .  S
C1781      H1783   1.082       .  S
C1785      H1787   1.084       .  S
C1785      C1786   1.350       .  D
C1786      H1788   1.083       .  S
C1789      C1790   1.411       .  A
C1789      C1794   1.396       .  A
C1789      H1795   1.083       .  S
C1790      C1791   1.401       .  A
C1791      C1792   1.395       .  A
C1791      H1796   1.083       .  S
C1792      C1793   1.409       .  A
C1793      C1794   1.399       .  A
C1794      H1798   1.078       .  S
C1799      C1800   1.402       .  A
C1799      C1804   1.393       .  A
C1799      H1805   1.083       .  S
C1800      C1801   1.404       .  A
C1801      C1802   1.389       .  A
C1801      H1806   1.083       .  S
C1802      C1803   1.405       .  A
C1803      C1804   1.410       .  A
C1804      H1808   1.084       .  S
C1809      C1810   1.408       .  A
C1809      C1814   1.400       .  A
C1809      H1815   1.083       .  S
C1810      C1811   1.404       .  A
C1811      C1812   1.400       .  A
C1811      H1816   1.083       .  S
C1812      C1813   1.410       .  A
C1813      C1814   1.404       .  A
C1819      C1820   1.404       .  A
C1819      C1824   1.399       .  A
C1819      H1825   1.083       .  S
C1820      C1821   1.408       .  A
C1821      C1822   1.398       .  A
C1821      H1826   1.083       .  S
C1822      C1823   1.402       .  A
C1822      H1827   1.079       .  S
C1823      C1824   1.409       .  A
C1824      H1828   1.082       .  S
C1829      C1834   1.393       .  A
C1831      C1832   1.392       .  A
C1831      H1836   1.083       .  S
C1832      C1833   1.407       .  A
C1832      H1837   1.076       .  S
C1833      C1834   1.410       .  A
C1834      H1838   1.083       .  S
C1839      C1840   1.410       .  A
C1839      C1844   1.394       .  A
C1840      C1841   1.403       .  A
C1841      C1842   1.400       .  A
C1841      H1846   1.083       .  S
C1842      C1843   1.410       .  A
C1842      H1847   1.083       .  S
C1843      C1844   1.397       .  A
C1844      H1848   1.079       .  S
