geometry optimzed in LAMMPS
_audit_creation_date              2020-11-30 
_audit_creation_method            'lammps2cif' 
_symmetry_space_group_name_H-M    'P1' 
_symmetry_Int_Tables_number       1 
_symmetry_cell_setting            triclinic 
loop_ 
_symmetry_equiv_pos_as_xyz 
  x,y,z 
_cell_length_a                    32.7114112 
_cell_length_b                    32.60971971100684 
_cell_length_c                    78.64706127228668 
_cell_angle_alpha                 90.11864872314686 
_cell_angle_beta                  89.94449749558183 
_cell_angle_gamma                 120.04261275585019 
loop_ 
_atom_site_label 
_atom_site_type_symbol 
_atom_site_fract_x 
_atom_site_fract_y 
_atom_site_fract_z 
_atom_site_charge 
C1          C  0.09094193  0.50744621  0.53929513     0.02700
C2          C  0.12771034  0.50153124  0.54589477    -0.13400
C3          C  0.14197421  0.47254566  0.53749252     0.00200
C4          C  0.11992759  0.45110498  0.52209987    -0.12000
C5          C  0.08657927  0.46004066  0.51460726     0.02700
C6          C  0.07137408  0.48762917  0.52331566    -0.11400
H7          H  0.14564354  0.52045227  0.55733057     0.08300
H8          H  0.12973359  0.42814441  0.51545087     0.05800
H9          H  0.04507760  0.49419793  0.51760514     0.05700
C10         C  0.91525919  0.54509519  0.44995605     0.02700
C11         C  0.93228896  0.56087016  0.46657786    -0.13400
C12         C  0.91695693  0.58767359  0.47576772     0.00200
C13         C  0.88480147  0.59859546  0.46841937    -0.12000
C14         C  0.86860845  0.58425662  0.45185861     0.02700
C15         C  0.88365961  0.55744740  0.44262729    -0.11400
H16         H  0.95732814  0.55247834  0.47229164     0.08300
H17         H  0.87339927  0.61975390  0.47545752     0.05800
H18         H  0.87199769  0.54755921  0.42959846     0.05700
O19         O  0.96381661  0.62919269  0.60075327    -0.85800
O20         O  0.92429195  0.68008559  0.58856738    -0.82800
C21         C  0.92309001  0.71482944  0.58207191     0.97700
O22         O  0.94685847  0.73433286  0.56866913    -0.82900
O23         O  0.02839735  0.79569211  0.58434286    -0.85500
C24         C  0.06291063  0.80789044  0.59412449     1.02200
O25         O  0.07917120  0.78069177  0.59724460    -0.78300
O26         O  0.01502440  0.69622189  0.61175228    -0.78500
C27         C  0.97891447  0.65612595  0.61349436     1.02200
O28         O  0.99069849  0.62111302  0.56680362    -0.85800
O29         O  0.93753493  0.65805942  0.55442405    -0.82800
C30         C  0.96566609  0.67483093  0.54210251     0.97700
O31         O  0.00394676  0.71294414  0.54434801    -0.82900
O32         O  0.08503673  0.78070288  0.56043497    -0.85500
C33         C  0.11433498  0.76708562  0.56373627     1.02200
O34         O  0.10356349  0.73211403  0.57321980    -0.78300
O35         O  0.04430850  0.64587240  0.58710202    -0.78400
C36         C  0.02575416  0.62152351  0.57367330     1.02100
Cr37       Cr  0.95743262  0.65061251  0.57764167     1.93700
Cr38       Cr  0.01538662  0.75224427  0.56513020     1.93200
Cr39       Cr  0.05674840  0.71270399  0.59158708     1.39100
O40         O  0.01065501  0.70582344  0.57807413    -1.23500
C41         C  0.25407928  0.22278325  0.11305489     0.02700
C42         C  0.27174459  0.23594157  0.12977697    -0.13400
C43         C  0.25783758  0.26227642  0.13994126     0.00200
C44         C  0.22445701  0.27320260  0.13388603    -0.12000
C45         C  0.20527280  0.25950654  0.11762163     0.02700
C46         C  0.22091945  0.23518687  0.10707037    -0.11400
H47         H  0.29567851  0.22535259  0.13498563     0.08300
H48         H  0.21295518  0.29233189  0.14207643     0.05800
H49         H  0.20738352  0.22604937  0.09423141     0.05700
C50         C  0.40200728  0.15248174  0.20916198     0.02700
C51         C  0.38069321  0.13288721  0.19338752    -0.13400
C52         C  0.39060913  0.10082631  0.18497294     0.00200
C53         C  0.42181891  0.08855811  0.19233442    -0.12000
C54         C  0.44801386  0.11214099  0.20682146     0.02700
C55         C  0.43677117  0.14312420  0.21553091    -0.11400
H56         H  0.35679413  0.14280135  0.18762516     0.08300
H57         H  0.42786789  0.06251255  0.18602709     0.05800
H58         H  0.45592633  0.16118372  0.22693032     0.05700
O59         O  0.33994947  0.10220770  0.07513841    -0.85800
O60         O  0.36035795  0.06903329  0.10320127    -0.82800
C61         C  0.35713375  0.04113513  0.11472948     0.97700
O62         O  0.34632072  0.99926211  0.11091382    -0.82900
O63         O  0.25064166  0.96177728  0.10416879    -0.85500
C64         C  0.21312496  0.95072909  0.09607601     1.02200
O65         O  0.21392887  0.95759446  0.08020197    -0.78300
O66         O  0.26404318  0.05178850  0.07457725    -0.78500
C67         C  0.29769450  0.09301725  0.07719732     1.02200
O68         O  0.37963754  0.05618210  0.05468970    -0.85800
O69         O  0.40571782  0.02686394  0.08234398    -0.82800
C70         C  0.39356761  0.98434006  0.07843021     0.97700
O71         O  0.35146515  0.95201214  0.08049589    -0.82900
O72         O  0.25582762  0.90663431  0.07764861    -0.85500
C73         C  0.24747429  0.90377042  0.06191623     1.02200
O74         O  0.26247304  0.94100870  0.05314030    -0.78300
O75         O  0.30945774  0.03752541  0.04518619    -0.78400
C76         C  0.35304685  0.05302716  0.04268267     1.02100
Cr77       Cr  0.36715416  0.05932504  0.07886190     1.93700
Cr78       Cr  0.30242366  0.95892081  0.09228434     1.93200
Cr79       Cr  0.26649673  0.99805240  0.06423180     1.39100
O80         O  0.31205962  0.00557206  0.07833364    -1.23500
O81         O  0.28784555  0.33064497  0.26816186    -0.85800
O82         O  0.25646559  0.35426253  0.24037743    -0.82800
C83         C  0.26885144  0.39666742  0.24440405     0.97700
O84         O  0.31032608  0.42933135  0.24150250    -0.82900
O85         O  0.40531680  0.47482768  0.24453199    -0.85500
C86         C  0.41501729  0.47592864  0.26013194     1.02200
O87         O  0.40265573  0.43820039  0.26833749    -0.78300
O88         O  0.35668688  0.34178729  0.27569265    -0.78500
C89         C  0.31523678  0.33240683  0.27959846     1.02200
O90         O  0.32365207  0.27995907  0.24764351    -0.85800
O91         O  0.29923387  0.30993243  0.21976359    -0.82800
C92         C  0.30457813  0.33757720  0.20781458     0.97700
O93         O  0.31619255  0.38018553  0.21098611    -0.82900
O94         O  0.41213286  0.42174882  0.21719191    -0.85500
C95         C  0.45011725  0.43285754  0.22493463     1.02200
O96         O  0.44989912  0.42475128  0.24063538    -0.78300
O97         O  0.39927952  0.32980227  0.24470039    -0.78400
C98         C  0.36441985  0.28885126  0.24289949     1.02100
Cr99       Cr  0.29587303  0.32269494  0.24392814     1.93700
Cr100      Cr  0.35965601  0.42260597  0.22948440     1.93200
Cr101      Cr  0.39814222  0.38254647  0.25646139     1.39100
O102        O  0.35130240  0.37607353  0.24327937    -1.23500
C103        C  0.20677211  0.28122410  0.37477701     0.02700
C104        C  0.22450064  0.29985619  0.35852652    -0.13400
C105        C  0.25138834  0.28462589  0.34931830     0.00200
C106        C  0.25933991  0.24975322  0.35625897    -0.12000
C107        C  0.24314948  0.23179998  0.37252421     0.02700
C108        C  0.21716781  0.24780927  0.38183942    -0.11400
H109        H  0.21711290  0.32591202  0.35299828     0.08300
H110        H  0.27892344  0.23689140  0.34902250     0.05800
H111        H  0.20509995  0.23428255  0.39452584     0.05700
C112        C  0.15003192  0.45410425  0.28062074     0.02700
C113        C  0.13944543  0.48747492  0.27352067    -0.13400
C114        C  0.11368091  0.50370873  0.28293054     0.00200
C115        C  0.09872316  0.48668327  0.29939570    -0.12000
C116        C  0.10890092  0.45388008  0.30669705     0.02700
C117        C  0.13495807  0.43786092  0.29737939    -0.11400
H118        H  0.15078983  0.50039737  0.26071383     0.08300
H119        H  0.07813892  0.49855628  0.30653575     0.05800
H120        H  0.14275564  0.41225931  0.30302363     0.05700
O121        O  0.02152529  0.43977769  0.41997185    -0.85800
O122        O  0.07154810  0.40248867  0.43404549    -0.82800
C123        C  0.04365126  0.38290001  0.44636217     0.97700
O124        O  0.00583054  0.34455155  0.44382242    -0.82900
O125        O  0.92569465  0.27711886  0.42756957    -0.85500
C126        C  0.89738170  0.29253788  0.42580444     1.02200
O127        O  0.90866597  0.32915255  0.41722297    -0.78300
O128        O  0.96511169  0.41234605  0.40086115    -0.78500
C129        C  0.98655588  0.43972710  0.41330132     1.02200
O130        O  0.04762623  0.42594589  0.38623161    -0.85800
O131        O  0.08775180  0.37798841  0.40042068    -0.82800
C132        C  0.09016358  0.34503949  0.40782009     0.97700
O133        O  0.06327714  0.32379066  0.42034592    -0.82900
O134        O  0.98199018  0.26328472  0.40352902    -0.85500
C135        C  0.94611557  0.25029175  0.39431262     1.02200
O136        O  0.92780275  0.27628967  0.39234534    -0.78300
O137        O  0.98975992  0.35950599  0.37651530    -0.78400
C138        C  0.02696510  0.39826769  0.37388856     1.02100
Cr139      Cr  0.05329545  0.40767340  0.41013348     1.93700
Cr140      Cr  0.99493963  0.30605368  0.42302852     1.93200
Cr141      Cr  0.95168779  0.34521596  0.39753569     1.39100
O142        O  0.99970535  0.35263950  0.41013739    -1.23500
C143        C  0.51217835  0.93189439  0.03943838     0.02700
C144        C  0.52554459  0.94766413  0.02253983    -0.13400
C145        C  0.54913434  0.92995679  0.01261493     0.00200
C146        C  0.55817182  0.89564933  0.01931544    -0.12000
C147        C  0.54526970  0.87960317  0.03594614     0.02700
C148        C  0.52256682  0.89784649  0.04598023    -0.11400
H149        H  0.51714590  0.97291749  0.01700770     0.08300
H150        H  0.57692633  0.88257479  0.01170617     0.05800
H151        H  0.51324856  0.88559928  0.05896689     0.05700
C152        C  0.46894174  0.10929249  0.94892732     0.02700
C153        C  0.45645362  0.09471396  0.96596935    -0.13400
C154        C  0.43165640  0.11140438  0.97561840     0.00200
C155        C  0.42163203  0.14466638  0.96868059    -0.12000
C156        C  0.43441026  0.16017867  0.95198122     0.02700
C157        C  0.45786944  0.14251332  0.94207750    -0.11400
H158        H  0.46568537  0.07032401  0.97173652     0.08300
H159        H  0.40218985  0.15729328  0.97612291     0.05800
H160        H  0.46617617  0.15361703  0.92894967     0.05700
O161        O  0.59902794  0.98677825  0.88720462    -0.85800
O162        O  0.64523614  0.94360108  0.90068571    -0.82800
C163        C  0.67863623  0.94097500  0.90762893     0.97700
O164        O  0.69970426  0.96713849  0.92032036    -0.82900
O165        O  0.76063760  0.05147878  0.90406772    -0.85500
C166        C  0.77376702  0.08983316  0.89620752     1.02200
O167        O  0.74679102  0.10705243  0.89505579    -0.78300
O168        O  0.66575644  0.04494295  0.87795020    -0.78500
C169        C  0.62748414  0.00717472  0.87512340     1.02200
O170        O  0.58324174  0.00993047  0.92097107    -0.85800
O171        O  0.61973694  0.95783861  0.93450488    -0.82800
C172        C  0.63956148  0.98526135  0.94697155     0.97700
O173        O  0.67877836  0.02219011  0.94472769    -0.82900
O174        O  0.74530925  0.10394626  0.92953924    -0.85500
C175        C  0.72997963  0.13263003  0.92852906     1.02200
O176        O  0.69324467  0.12196276  0.92001512    -0.78300
O177        O  0.61093999  0.06626806  0.90194341    -0.78400
C178        C  0.58305205  0.04483017  0.91413683     1.02100
Cr179      Cr  0.61569391  0.97824865  0.91086946     1.93700
Cr180      Cr  0.71730171  0.03534816  0.92385597     1.93200
Cr181      Cr  0.67820966  0.08107245  0.89950337     1.39100
O182        O  0.67071020  0.03175579  0.91136986    -1.23500
C183        C  0.84473625  0.60029932  0.70441562     0.02700
C184        C  0.85127795  0.56457419  0.71180340    -0.13400
C185        C  0.87810764  0.54803853  0.70344990     0.00200
C186        C  0.89713342  0.56575313  0.68745513    -0.12000
C187        C  0.89157445  0.60144289  0.67991971     0.02700
C188        C  0.86665915  0.61967505  0.68866488    -0.11400
H189        H  0.83599737  0.54984756  0.72407740     0.08300
H190        H  0.91762726  0.55257634  0.68103286     0.05800
H191        H  0.86406387  0.64857790  0.68308187     0.05700
C192        C  0.81755715  0.78474180  0.62031998     0.02700
C193        C  0.79529930  0.76270385  0.63580947    -0.13400
C194        C  0.76950385  0.77895205  0.64512244     0.00200
C195        C  0.76379068  0.81544187  0.63862009    -0.12000
C196        C  0.78274778  0.83576779  0.62285815     0.02700
C197        C  0.81041034  0.82113579  0.61387678    -0.11400
H198        H  0.79749717  0.73273772  0.64057153     0.08300
H199        H  0.74262811  0.82688964  0.64561850     0.05800
H200        H  0.82514673  0.83721113  0.60170743     0.05700
C201        C  0.56835128  0.87992474  0.78353771     0.02700
C202        C  0.58979640  0.90281639  0.79890055    -0.13400
C203        C  0.57570218  0.93189034  0.80710870     0.00200
C204        C  0.54051073  0.93863616  0.79992290    -0.12000
C205        C  0.51614368  0.91360516  0.78532903     0.02700
C206        C  0.53035462  0.88418925  0.77718088    -0.11400
H207        H  0.61753855  0.89823708  0.80446481     0.08300
H208        H  0.53150335  0.96289367  0.80602611     0.05800
H209        H  0.51175291  0.86444282  0.76594251     0.05700
C210        C  0.73825285  0.82011488  0.87378614     0.02700
C211        C  0.77072297  0.80909368  0.88140545    -0.13400
C212        C  0.78852923  0.78441308  0.87226595     0.00200
C213        C  0.77315870  0.76941780  0.85571384    -0.12000
C214        C  0.74094886  0.77950502  0.84793078     0.02700
C215        C  0.72445308  0.80595402  0.85674764    -0.11400
H216        H  0.78185391  0.81921501  0.89444736     0.08300
H217        H  0.78608298  0.74925696  0.84886667     0.05800
H218        H  0.70100335  0.81528803  0.85032582     0.05700
O219        O  0.72959786  0.69918602  0.73386974    -0.85800
O220        O  0.69158010  0.75099287  0.72217456    -0.82800
C221        C  0.67247630  0.72364170  0.70960402     0.97700
O222        O  0.63377208  0.68611554  0.71174323    -0.82900
O223        O  0.56766581  0.60402449  0.72681652    -0.85500
C224        C  0.58240019  0.57490517  0.72746447     1.02200
O225        O  0.61981002  0.58547654  0.73548644    -0.78300
O226        O  0.70414467  0.64074479  0.75221279    -0.78500
C227        C  0.73050275  0.66380617  0.73979402     1.02200
O228        O  0.71732167  0.71959778  0.76850376    -0.85800
O229        O  0.66785015  0.76105057  0.75708317    -0.82800
C230        C  0.63403193  0.76375795  0.75063869     0.97700
O231        O  0.61426851  0.74064687  0.73720466    -0.82900
O232        O  0.55457114  0.65620015  0.75287646    -0.85500
C233        C  0.54137895  0.61764395  0.76051725     1.02200
O234        O  0.56834182  0.60019342  0.76146102    -0.78300
O235        O  0.65126740  0.66072894  0.77786780    -0.78400
C236        C  0.68987290  0.69791221  0.78072858     1.02100
Cr237      Cr  0.69794202  0.72923306  0.74538407     1.93700
Cr238      Cr  0.59630269  0.67249585  0.73286277     1.93200
Cr239      Cr  0.63681553  0.62568206  0.75610193     1.39100
O240        O  0.64337807  0.67542246  0.74482858    -1.23500
C241        C  0.26692980  0.44664486  0.78444157     0.02700
C242        C  0.26945578  0.42942260  0.80067623    -0.13400
C243        C  0.31314848  0.44745237  0.80905936     0.00200
C244        C  0.35425296  0.48089694  0.80087686    -0.12000
C245        C  0.35250827  0.49710280  0.78465549     0.02700
C246        C  0.30900309  0.48039213  0.77645540    -0.11400
H247        H  0.23764202  0.40248012  0.80680715     0.08300
H248        H  0.38818247  0.49359231  0.80701728     0.05800
H249        H  0.30800085  0.49325237  0.76384946     0.05700
C250        C  0.04591404  0.26213525  0.87005471     0.02700
C251        C  0.00377342  0.22964469  0.87829275    -0.13400
C252        C  0.96015684  0.21389654  0.87035192     0.00200
C253        C  0.95825549  0.23150829  0.85442121    -0.12000
C254        C  0.99955343  0.26416209  0.84597687     0.02700
C255        C  0.04357320  0.27930563  0.85382926    -0.11400
H256        H  0.00484562  0.21709568  0.89094022     0.08300
H257        H  0.92409459  0.21990872  0.84862644     0.05800
H258        H  0.07586378  0.30365558  0.84726659     0.05700
O259        O  0.92955822  0.28417239  0.73209719    -0.85800
O260        O  0.02102792  0.32646109  0.72094727    -0.82800
C261        C  0.01351332  0.34651201  0.70859838     0.97700
O262        O  0.01190483  0.38375847  0.71126859    -0.82900
O263        O  0.99034685  0.44529687  0.72780290    -0.85500
C264        C  0.94596215  0.42771713  0.72863929     1.02200
O265        O  0.92054213  0.38914970  0.73627537    -0.78300
O266        O  0.89571128  0.30448522  0.75187190    -0.78500
C267        C  0.89275156  0.28057612  0.73870613     1.02200
O268        O  0.96160822  0.29321359  0.76675623    -0.85800
O269        O  0.05255027  0.34655403  0.75570886    -0.82800
C270        C  0.08871606  0.38179484  0.74964097     0.97700
O271        O  0.08522064  0.40407134  0.73699296    -0.82900
O272        O  0.05623967  0.45938620  0.75374297    -0.85500
C273        C  0.02936272  0.46957211  0.76198418     1.02200
O274        O  0.98551037  0.44065227  0.76245957    -0.78300
O275        O  0.96845763  0.35785613  0.77754985    -0.78400
C276        C  0.96760187  0.31915167  0.77952482     1.02100
Cr277      Cr  0.99110386  0.31609841  0.74389507     1.93700
Cr278      Cr  0.03298074  0.41927157  0.73308560     1.93200
Cr279      Cr  0.94563927  0.37243142  0.75632874     1.39100
O280        O  0.98993101  0.36965052  0.74442826    -1.23500
O281        O  0.35301022  0.41423046  0.88715558    -0.85800
O282        O  0.26169375  0.36393463  0.89852840    -0.82800
C283        C  0.22511339  0.32890602  0.90454275     0.97700
O284        O  0.22836305  0.30607244  0.91704462    -0.82900
O285        O  0.25570366  0.24983990  0.90060294    -0.85500
C286        C  0.28177084  0.23776494  0.89288205     1.02200
O287        O  0.32611169  0.26516177  0.89236976    -0.78300
O288        O  0.34532572  0.34889829  0.87677355    -0.78500
C289        C  0.34572406  0.38729292  0.87452992     1.02200
O290        O  0.38526322  0.42389516  0.92206796    -0.85800
O291        O  0.29407780  0.38408484  0.93314282    -0.82800
C292        C  0.30050812  0.36330777  0.94548629     0.97700
O293        O  0.30093445  0.32543424  0.94288177    -0.82900
O294        O  0.32078583  0.26278810  0.92696734    -0.85500
C295        C  0.36511504  0.27971404  0.92655379     1.02200
O296        O  0.39114678  0.31742920  0.91854772    -0.78300
O297        O  0.41840635  0.40208601  0.90254313    -0.78400
C298        C  0.42172757  0.42598449  0.91578234     1.02100
Cr299      Cr  0.32359975  0.39302772  0.91017576     1.93700
Cr300      Cr  0.27943661  0.28980104  0.92120592     1.93200
Cr301      Cr  0.36719378  0.33415640  0.89820640     1.39100
O302        O  0.32328063  0.33862136  0.90982992    -1.23500
C303        C  0.38674047  0.48980604  0.03778788     0.02700
C304        C  0.34443095  0.47923463  0.04623411    -0.13400
C305        C  0.30070178  0.45370598  0.03801045     0.00200
C306        C  0.29864575  0.43676897  0.02160147    -0.12000
C307        C  0.33966574  0.44621812  0.01287447     0.02700
C308        C  0.38393068  0.47365116  0.02085763    -0.11400
H309        H  0.34542987  0.49152317  0.05912875     0.08300
H310        H  0.26449132  0.41605276  0.01551918     0.05800
H311        H  0.41582509  0.48336189  0.01374491     0.05700
C312        C  0.60083429  0.53090805  0.95168297     0.02700
C313        C  0.60331422  0.55096237  0.96788364    -0.13400
C314        C  0.64665404  0.57592354  0.97652814     0.00200
C315        C  0.68782940  0.58238847  0.96870619    -0.12000
C316        C  0.68665309  0.56497086  0.95234714     0.02700
C317        C  0.64313856  0.53873373  0.94391281    -0.11400
H318        H  0.57170616  0.54740596  0.97373259     0.08300
H319        H  0.72148522  0.60310943  0.97509600     0.05800
H320        H  0.64238391  0.52534667  0.93122924     0.05700
O321        O  0.60286843  0.61716741  0.06552514    -0.85800
O322        O  0.69358577  0.65962005  0.05355926    -0.82800
C323        C  0.68405480  0.67676830  0.04078281     0.97700
O324        O  0.68305882  0.71461641  0.04260129    -0.82900
O325        O  0.66052130  0.77771081  0.05726460    -0.85500
C326        C  0.61614214  0.75928577  0.05836227     1.02200
O327        O  0.59177552  0.72162172  0.06660313    -0.78300
O328        O  0.56947310  0.64054357  0.08428445    -0.78500
C329        C  0.56603199  0.61473854  0.07164871     1.02200
O330        O  0.63817027  0.63444118  0.10007130    -0.85800
O331        O  0.72762339  0.68673454  0.08794403    -0.82800
C332        C  0.76301355  0.72208985  0.08155420     0.97700
O333        O  0.75851529  0.74192835  0.06834399    -0.82900
O334        O  0.72771945  0.79864337  0.08316168    -0.85500
C335        C  0.70045705  0.80887300  0.09113006     1.02200
O336        O  0.65678956  0.77889340  0.09211823    -0.78300
O337        O  0.64304214  0.69979034  0.10909927    -0.78400
C338        C  0.64568887  0.66327975  0.11204722     1.02100
Cr339      Cr  0.66540193  0.65302453  0.07669634     1.93700
Cr340      Cr  0.70464137  0.75427541  0.06354014     1.93200
Cr341      Cr  0.61831952  0.70951127  0.08734494     1.39100
O342        O  0.66290910  0.70604248  0.07587841    -1.23500
C343        C  0.71327164  0.16380619  0.70473737     0.02700
C344        C  0.71100542  0.13943411  0.68962231    -0.13400
C345        C  0.66777317  0.11150878  0.68134746     0.00200
C346        C  0.62627080  0.10570392  0.68850957    -0.12000
C347        C  0.62734697  0.12794120  0.70380618     0.02700
C348        C  0.67081145  0.15742631  0.71184152    -0.11400
H349        H  0.74270889  0.14223348  0.68417602     0.08300
H350        H  0.59285348  0.08380368  0.68207481     0.05800
H351        H  0.67141762  0.17542775  0.72350740     0.05700
C352        C  0.94754206  0.21930839  0.61652881     0.02700
C353        C  0.99012705  0.22924020  0.60851220    -0.13400
C354        C  0.03370105  0.25660133  0.61682743     0.00200
C355        C  0.03433236  0.27354706  0.63324293    -0.12000
C356        C  0.99239933  0.26356999  0.64153582     0.02700
C357        C  0.94905292  0.23717561  0.63297914    -0.11400
H358        H  0.98932646  0.21570662  0.59585916     0.08300
H359        H  0.06794329  0.29526154  0.63956353     0.05800
H360        H  0.91647910  0.22947761  0.63927594     0.05700
C361        C  0.38809066  0.93807890  0.53947745     0.02700
C362        C  0.38811151  0.95606995  0.52320286    -0.13400
C363        C  0.34546835  0.94331855  0.51492179     0.00200
C364        C  0.30279857  0.91093546  0.52244187    -0.12000
C365        C  0.30179491  0.88854182  0.53770526     0.02700
C366        C  0.34460297  0.90318817  0.54644525    -0.11400
H367        H  0.42114859  0.98019367  0.51700784     0.08300
H368        H  0.27010539  0.90246832  0.51609261     0.05800
H369        H  0.34406748  0.88761416  0.55865045     0.05700
C370        C  0.62629350  0.11052804  0.44864919     0.02700
C371        C  0.62704414  0.09218282  0.46485681    -0.13400
C372        C  0.66950975  0.10980919  0.47397745     0.00200
C373        C  0.71148698  0.14547252  0.46690251    -0.12000
C374        C  0.71156053  0.16388879  0.45087479     0.02700
C375        C  0.66898792  0.14700281  0.44189774    -0.11400
H376        H  0.59463185  0.06456266  0.47046582     0.08300
H377        H  0.74430206  0.15875716  0.47386591     0.05800
H378        H  0.66923315  0.16290884  0.42978368     0.05700
O379        O  0.69600017  0.08576449  0.55501997    -0.85800
O380        O  0.60446795  0.03281228  0.56655551    -0.82800
C381        C  0.56837065  0.99758264  0.57280649     0.97700
O382        O  0.57279739  0.97598079  0.58540653    -0.82900
O383        O  0.60245656  0.92014249  0.56923741    -0.85500
C384        C  0.62973755  0.90987497  0.56132123     1.02200
O385        O  0.67341143  0.93920059  0.56059203    -0.78300
O386        O  0.69250498  0.02182882  0.54511008    -0.78500
C387        C  0.69118500  0.05927153  0.54257493     1.02200
O388        O  0.72956163  0.09911027  0.58950402    -0.85800
O389        O  0.63778002  0.05570025  0.60106186    -0.82800
C390        C  0.64426370  0.03541664  0.61355223     0.97700
O391        O  0.64511489  0.99767852  0.61117982    -0.82900
O392        O  0.66665616  0.93592189  0.59571953    -0.85500
C393        C  0.71050857  0.95157921  0.59516809     1.02200
O394        O  0.73707270  0.98939035  0.58720352    -0.78300
O395        O  0.76376699  0.07458231  0.57132350    -0.78400
C396        C  0.76647983  0.10119723  0.58358049     1.02100
Cr397      Cr  0.66704900  0.06448216  0.57804201     1.93700
Cr398      Cr  0.62495148  0.96155695  0.58961661     1.93200
Cr399      Cr  0.71340154  0.00711017  0.56680903     1.39100
O400        O  0.66859443  0.01083131  0.57817986    -1.23500
O401        O  0.28466404  0.95944112  0.40038010    -0.85800
O402        O  0.37459589  0.99679079  0.38807145    -0.82800
C403        C  0.36577633  0.01532050  0.37554456     0.97700
O404        O  0.36675766  0.05402649  0.37773397    -0.82900
O405        O  0.35351342  0.12272061  0.39346689    -0.85500
C406        C  0.30975674  0.10781351  0.39507062     1.02200
O407        O  0.28369728  0.07070997  0.40331436    -0.78300
O408        O  0.25463660  0.98631597  0.41938397    -0.78500
C409        C  0.24928824  0.95915841  0.40691322     1.02200
O410        O  0.31880285  0.97081335  0.43448382    -0.85800
O411        O  0.40944918  0.01967224  0.42243455    -0.82800
C412        C  0.44606501  0.05302445  0.41578842     0.97700
O413        O  0.44272278  0.07369186  0.40257975    -0.82900
O414        O  0.42086729  0.13522804  0.41834284    -0.85500
C415        C  0.39705193  0.14835422  0.42700194     1.02200
O416        O  0.35281442  0.12190508  0.42884248    -0.78300
O417        O  0.32959585  0.03760834  0.44460622    -0.78400
C418        C  0.32649515  0.99797782  0.44698119     1.02100
Cr419      Cr  0.34716614  0.99053215  0.41132096     1.93700
Cr420      Cr  0.39285922  0.09257546  0.39870837     1.93200
Cr421      Cr  0.30813372  0.05328992  0.42331413     1.39100
O422        O  0.34942033  0.04592681  0.41118060    -1.23500
C423        C  0.07103116  0.83828664  0.37283740     0.02700
C424        C  0.02774650  0.82815641  0.38030659    -0.13400
C425        C  0.98543262  0.80257989  0.37127145     0.00200
C426        C  0.98597034  0.78681782  0.35484846    -0.12000
C427        C  0.02824331  0.79616636  0.34725222     0.02700
C428        C  0.07100482  0.82266805  0.35605433    -0.11400
H429        H  0.02683176  0.83949232  0.39319802     0.08300
H430        H  0.95301972  0.76652492  0.34798009     0.05800
H431        H  0.10387900  0.83135046  0.34981043     0.05700
C432        C  0.27474125  0.87129167  0.28670683     0.02700
C433        C  0.27914951  0.89244790  0.30277728    -0.13400
C434        C  0.32307888  0.91586828  0.31106388     0.00200
C435        C  0.36295712  0.91953891  0.30305615    -0.12000
C436        C  0.35977236  0.90059697  0.28680999     0.02700
C437        C  0.31548811  0.87583410  0.27878083    -0.11400
H438        H  0.24862903  0.89095190  0.30879774     0.08300
H439        H  0.39715090  0.93900500  0.30927006     0.05800
H440        H  0.31291997  0.86065456  0.26630275     0.05700
C441        C  0.93840398  0.78398986  0.11809930     0.02700
C442        C  0.93520897  0.76710609  0.13484973    -0.13400
C443        C  0.97605984  0.78317413  0.14475688     0.00200
C444        C  0.01962847  0.81692607  0.13824684    -0.12000
C445        C  0.02411104  0.83325240  0.12155825     0.02700
C446        C  0.98323977  0.81654473  0.11145561    -0.11400
H447        H  0.90130611  0.74120693  0.14004384     0.08300
H448        H  0.05074916  0.82951093  0.14620324     0.05800
H449        H  0.98620749  0.82865914  0.09847461     0.05700
C450        C  0.72407234  0.60689214  0.20310282     0.02700
C451        C  0.67972822  0.57172838  0.20933130    -0.13400
C452        C  0.63872245  0.55511795  0.19928230     0.00200
C453        C  0.64285630  0.57461840  0.18308548    -0.12000
C454        C  0.68571482  0.61165776  0.17721812     0.02700
C455        C  0.72660722  0.62759971  0.18712371    -0.11400
H456        H  0.67726639  0.55859198  0.22212533     0.08300
H457        H  0.61189344  0.56194849  0.17504942     0.05800
H458        H  0.76011196  0.65580544  0.18243124     0.05700
O459        O  0.02506262  0.76143868  0.22316057    -0.85800
O460        O  0.93432858  0.70905569  0.23490586    -0.82800
C461        C  0.89845307  0.67296173  0.24076769     0.97700
O462        O  0.90262554  0.64965205  0.25293892    -0.82900
O463        O  0.93066766  0.59320582  0.23638502    -0.85500
C464        C  0.95744288  0.58322739  0.22793051     1.02200
O465        O  0.00072576  0.61344749  0.22629968    -0.78300
O466        O  0.01736298  0.69696794  0.21212079    -0.78500
C467        C  0.01559206  0.73443782  0.21048697     1.02200
O468        O  0.05892512  0.76949172  0.25765352    -0.85800
O469        O  0.96791330  0.72760191  0.26914756    -0.82800
C470        C  0.97926355  0.70961384  0.28105136     0.97700
O471        O  0.97825276  0.67108593  0.27833042    -0.82900
O472        O  0.99745831  0.60912424  0.26183286    -0.85500
C473        C  0.04100913  0.62390791  0.26012934     1.02200
O474        O  0.06696378  0.66206908  0.25221429    -0.78300
O475        O  0.09196680  0.74897487  0.23763987    -0.78400
C476        C  0.09530469  0.77197544  0.25112285     1.02100
Cr477      Cr  0.99677908  0.73841032  0.24613331     1.93700
Cr478      Cr  0.95505309  0.63483719  0.25672176     1.93200
Cr479      Cr  0.04126879  0.68129939  0.23280213     1.39100
O480        O  0.99752133  0.68429096  0.24513329    -1.23500
C481        C  0.13234533  0.74682823  0.78163739     0.02700
C482        C  0.12158342  0.70197964  0.77519314    -0.13400
C483        C  0.09961547  0.66150411  0.78555235     0.00200
C484        C  0.08769496  0.66566165  0.80222583    -0.12000
C485        C  0.09542870  0.70876076  0.80860919     0.02700
C486        C  0.11955779  0.74984174  0.79863284    -0.11400
H487        H  0.12928667  0.69833714  0.76206671     0.08300
H488        H  0.06990847  0.63429716  0.81014585     0.05800
H489        H  0.12781578  0.78365714  0.80406338     0.05700
C490        C  0.17689356  0.96141629  0.87047452     0.02700
C491        C  0.19623448  0.96272341  0.85422242    -0.13400
C492        C  0.22132086  0.00582172  0.84532537     0.00200
C493        C  0.22868892  0.04766387  0.85294388    -0.12000
C494        C  0.21121183  0.04735564  0.86913736     0.02700
C495        C  0.18527844  0.00436170  0.87791650    -0.11400
H496        H  0.19138643  0.93041116  0.84844789     0.08300
H497        H  0.24912976  0.08104796  0.84632033     0.05800
H498        H  0.17172890  0.00441124  0.89049898     0.05700
O499        O  0.24955450  0.95862595  0.75229998    -0.85800
O500        O  0.28993416  0.04720867  0.76655041    -0.82800
C501        C  0.30947662  0.03855545  0.77881512     0.97700
O502        O  0.34693488  0.03775981  0.77610917    -0.82900
O503        O  0.40979621  0.01838221  0.75990643    -0.85500
C504        C  0.39255273  0.97424883  0.75755409     1.02200
O505        O  0.35654065  0.95095621  0.74840559    -0.78300
O506        O  0.27374952  0.92901738  0.73225251    -0.78500
C507        C  0.24748198  0.92308824  0.74503612     1.02200
O508        O  0.26445529  0.99934220  0.71874127    -0.85800
O509        O  0.31477596  0.08732688  0.73286622    -0.82800
C510        C  0.35002897  0.12233946  0.73951235     0.97700
O511        O  0.37127392  0.11635806  0.75197990    -0.82900
O512        O  0.42764268  0.09050944  0.73552583    -0.85500
C513        C  0.43934292  0.06586922  0.72674141     1.02200
O514        O  0.41124419  0.02210882  0.72448317    -0.78300
O515        O  0.33019860  0.00814215  0.70866998    -0.78400
C516        C  0.29252384  0.00895920  0.70639596     1.02100
Cr517      Cr  0.28343398  0.02304178  0.74262711     1.93700
Cr518      Cr  0.38499806  0.06274560  0.75510667     1.93200
Cr519      Cr  0.34207847  0.98058509  0.72924112     1.39100
O520        O  0.33715527  0.02203125  0.74239118    -1.23500
C521        C  0.77530513  0.97933653  0.36958762     0.02700
C522        C  0.81480250  0.02219465  0.37469463    -0.13400
C523        C  0.82772356  0.06474565  0.36603677     0.00200
C524        C  0.80171489  0.06326466  0.35163484    -0.12000
C525        C  0.76502674  0.02026865  0.34534606     0.02700
C526        C  0.75112802  0.97851189  0.35463251    -0.11400
H527        H  0.83508640  0.02245184  0.38560801     0.08300
H528        H  0.80977324  0.09581801  0.34523977     0.05800
H529        H  0.72127964  0.94552588  0.35030782     0.05700
C530        C  0.59470040  0.74938028  0.28102909     0.02700
C531        C  0.56195109  0.70436179  0.27445236    -0.13400
C532        C  0.54564022  0.66343585  0.28445103     0.00200
C533        C  0.56424133  0.66722904  0.30072851    -0.12000
C534        C  0.59776961  0.71102385  0.30732295     0.02700
C535        C  0.61151272  0.75234388  0.29781494    -0.11400
H536        H  0.54936486  0.70103513  0.26151726     0.08300
H537        H  0.55256812  0.63566900  0.30840983     0.05800
H538        H  0.63526970  0.78641608  0.30348403     0.05700
C539        C  0.07235962  0.62844815  0.04101148     0.02700
C540        C  0.05193634  0.62428184  0.02480085    -0.13400
C541        C  0.06403097  0.66524102  0.01514423     0.00200
C542        C  0.09541742  0.70987652  0.02186102    -0.12000
C543        C  0.11594209  0.71470402  0.03784639     0.02700
C544        C  0.10462267  0.67381351  0.04731380    -0.11400
H545        H  0.02790449  0.58959027  0.01959788     0.08300
H546        H  0.10433392  0.74125776  0.01442668     0.05800
H547        H  0.12123360  0.67718997  0.05955220     0.05700
C548        C  0.90284300  0.40837615  0.95039416     0.02700
C549        C  0.86822464  0.36420575  0.94385661    -0.13400
C550        C  0.85612986  0.32232348  0.95274699     0.00200
C551        C  0.87807535  0.32460148  0.96825900    -0.12000
C552        C  0.91350750  0.36793581  0.97472477     0.02700
C553        C  0.92573331  0.40972281  0.96573864    -0.11400
H554        H  0.85122515  0.36234732  0.93183585     0.08300
H555        H  0.86771605  0.29223257  0.97524203     0.05800
H556        H  0.95345817  0.44332086  0.97063030     0.05700
C557        C  0.79672873  0.08411195  0.11270125     0.02700
C558        C  0.78360610  0.03904419  0.10594206    -0.13400
C559        C  0.75659775  0.99786213  0.11555190     0.00200
C560        C  0.74336539  0.00179491  0.13208904    -0.12000
C561        C  0.75532296  0.04583114  0.13903895     0.02700
C562        C  0.78230603  0.08720479  0.12940079    -0.11400
H563        H  0.79438186  0.03599103  0.09318435     0.08300
H564        H  0.72364749  0.97011949  0.13971590     0.05800
H565        H  0.79320594  0.12146359  0.13505228     0.05700
C566        C  0.84940593  0.30427516  0.20849298     0.02700
C567        C  0.86606073  0.30132288  0.19223557    -0.13400
C568        C  0.89466020  0.34252701  0.18284537     0.00200
C569        C  0.90546251  0.38656723  0.18948197    -0.12000
C570        C  0.88856497  0.39030046  0.20542025     0.02700
C571        C  0.86069403  0.34908475  0.21501530    -0.11400
H572        H  0.85724982  0.26709536  0.18700193     0.08300
H573        H  0.92738009  0.41834915  0.18216373     0.05800
H574        H  0.84798693  0.35186295  0.22745009     0.05700
O575        O  0.92037063  0.28851770  0.07362237    -0.85800
O576        O  0.94595158  0.33852589  0.10276275    -0.82800
C577        C  0.97103654  0.36212372  0.11507592     0.97700
O578        O  0.01394036  0.39315176  0.11262780    -0.82900
O579        O  0.05949710  0.34163509  0.10540392    -0.85500
C580        C  0.07323325  0.31774290  0.09688710     1.02200
O581        O  0.06655278  0.31246902  0.08102419    -0.78300
O582        O  0.97230887  0.26537290  0.07536792    -0.78500
C583        C  0.93047351  0.25659597  0.07708255     1.02200
O584        O  0.96852041  0.37821726  0.05495317    -0.85800
O585        O  0.98835951  0.42818023  0.08396644    -0.82800
C586        C  0.03019279  0.46040651  0.08055869     0.97700
O587        O  0.06388327  0.45304384  0.08344666    -0.82900
O588        O  0.11318917  0.40670289  0.07981321    -0.85500
C589        C  0.11701276  0.40197553  0.06406543     1.02200
O590        O  0.08076673  0.37843937  0.05492375    -0.78300
O591        O  0.98538371  0.32517959  0.04606460    -0.78400
C592        C  0.97316079  0.35563691  0.04293579     1.02100
Cr593      Cr  0.96001213  0.35840386  0.07888422     1.93700
Cr594      Cr  0.05877583  0.39604539  0.09431914     1.93200
Cr595      Cr  0.02492258  0.32299296  0.06530027     1.39100
O596        O  0.01459341  0.35904786  0.07952994    -1.23500
O597        O  0.72288019  0.04852571  0.26733617    -0.85800
O598        O  0.67735865  0.96083275  0.25271668    -0.82800
C599        C  0.64454926  0.92465448  0.24555875     0.97700
O600        O  0.62244149  0.92953644  0.23313881    -0.82900
O601        O  0.55934656  0.94646202  0.25020311    -0.85500
C602        C  0.54536875  0.96810071  0.25969618     1.02200
O603        O  0.57107870  0.01203128  0.26258129    -0.78300
O604        O  0.65574774  0.03547816  0.27793546    -0.78500
C605        C  0.69565654  0.03937196  0.27992849     1.02200
O606        O  0.73296042  0.08984444  0.23395107    -0.85800
O607        O  0.69925052  0.00256914  0.21942619    -0.82800
C608        C  0.67937864  0.01101118  0.20730365     0.97700
O609        O  0.64023390  0.00854159  0.21001160    -0.82900
O610        O  0.57106265  0.01772840  0.22677193    -0.85500
C611        C  0.58367136  0.06057172  0.22989281     1.02200
O612        O  0.61926893  0.08598246  0.23895034    -0.78300
O613        O  0.70497282  0.11557343  0.25417915    -0.78400
C614        C  0.73144782  0.12345852  0.24128677     1.02100
Cr615      Cr  0.70410775  0.02524637  0.24340596     1.93700
Cr616      Cr  0.60214146  0.97876791  0.23084692     1.93200
Cr617      Cr  0.63890548  0.05934328  0.25754361     1.39100
O618        O  0.64790559  0.02104807  0.24399638    -1.23500
O619        O  0.05130119  0.71128932  0.93502571    -0.85800
O620        O  0.00418869  0.62222578  0.92173211    -0.82800
C621        C  0.97076608  0.58619519  0.91478549     0.97700
O622        O  0.95142049  0.59060208  0.90147449    -0.82900
O623        O  0.88899935  0.61151794  0.91781357    -0.85500
C624        C  0.87558442  0.63568436  0.92624562     1.02200
O625        O  0.90255928  0.68006148  0.92793702    -0.78300
O626        O  0.98449299  0.70093959  0.94438262    -0.78500
C627        C  0.02230029  0.70069257  0.94709969     1.02200
O628        O  0.06547440  0.74903214  0.90089855    -0.85800
O629        O  0.03019304  0.66145219  0.88755868    -0.82800
C630        C  0.01108207  0.67050476  0.87527499     0.97700
O631        O  0.97140805  0.66734610  0.87743678    -0.82900
O632        O  0.90294440  0.67979251  0.89306699    -0.85500
C633        C  0.91709427  0.72350969  0.89471286     1.02200
O634        O  0.95414585  0.75001147  0.90301014    -0.78300
O635        O  0.03839165  0.77921761  0.91969587    -0.78400
C636        C  0.06499412  0.78432775  0.90709296     1.02100
Cr637      Cr  0.03409066  0.68573586  0.91130418     1.93700
Cr638      Cr  0.93251899  0.64034566  0.89819359     1.93200
Cr639      Cr  0.97107842  0.72481070  0.92305514     1.39100
O640        O  0.97887255  0.68367420  0.91084516    -1.23500
C641        C  0.48789473  0.42324640  0.44865543     0.02700
C642        C  0.45969128  0.42034375  0.46270814    -0.13400
C643        C  0.42886563  0.37644879  0.47018680     0.00200
C644        C  0.42367123  0.33508382  0.46293585    -0.12000
C645        C  0.45159481  0.33663575  0.44914554     0.02700
C646        C  0.48447039  0.38107313  0.44230304    -0.11400
H647        H  0.46173441  0.45203853  0.46796255     0.08300
H648        H  0.39890322  0.30140224  0.46864605     0.05800
H649        H  0.50789717  0.38307789  0.43221265     0.05700
C650        C  0.52958005  0.63768348  0.53656174     0.02700
C651        C  0.54806176  0.63734213  0.52029436    -0.13400
C652        C  0.57159107  0.67917875  0.51069385     0.00200
C653        C  0.57817999  0.72152337  0.51758124    -0.12000
C654        C  0.56080574  0.72264246  0.53367737     0.02700
C655        C  0.53554920  0.68067873  0.54299140    -0.11400
H656        H  0.54366803  0.60463334  0.51503742     0.08300
H657        H  0.59814066  0.75423369  0.51051895     0.05800
H658        H  0.52122762  0.68179749  0.55529389     0.05700
O659        O  0.67450529  0.76599962  0.39919058    -0.85800
O660        O  0.62139536  0.67589675  0.38709056    -0.82800
C661        C  0.64878051  0.68325615  0.37470285     0.97700
O662        O  0.68619632  0.68197598  0.37708365    -0.82900
O663        O  0.76778917  0.69868130  0.39306587    -0.85500
C664        C  0.79699892  0.74259177  0.39449854     1.02200
O665        O  0.78619886  0.76911375  0.40266949    -0.78300
O666        O  0.72963078  0.79723032  0.41868828    -0.78500
C667        C  0.71004838  0.80165137  0.40541585     1.02200
O668        O  0.65055318  0.73125965  0.43368645    -0.85800
O669        O  0.60870119  0.64073560  0.42156062    -0.82800
C670        C  0.60619823  0.60411689  0.41508027     0.97700
O671        O  0.63109863  0.60772125  0.40215600    -0.82900
O672        O  0.71438588  0.63194479  0.41847446    -0.85500
C673        C  0.75183192  0.65680025  0.42676446     1.02200
O674        O  0.76897426  0.70115558  0.42802440    -0.78300
O675        O  0.70610230  0.72060909  0.44373432    -0.78400
C676        C  0.66790943  0.72023025  0.44600018     1.02100
Cr677      Cr  0.64218540  0.70343503  0.41039903     1.93700
Cr678      Cr  0.69917847  0.65815167  0.39839335     1.93200
Cr679      Cr  0.74386845  0.74422610  0.42258730     1.39100
O680        O  0.69549995  0.70197172  0.41041149    -1.23500
C681        C  0.41916508  0.29890248  0.70263379     0.02700
C682        C  0.40000629  0.29829872  0.68646062    -0.13400
C683        C  0.41470852  0.34091721  0.67757977     0.00200
C684        C  0.44915314  0.38351571  0.68469390    -0.12000
C685        C  0.46739115  0.38505045  0.70086787     0.02700
C686        C  0.45254991  0.34269097  0.70983401    -0.11400
H687        H  0.37353882  0.26502447  0.68092723     0.08300
H688        H  0.46079821  0.41628732  0.67776379     0.05800
H689        H  0.46561236  0.34389560  0.72257818     0.05700
C690        C  0.24387231  0.08257381  0.61309144     0.02700
C691        C  0.20678844  0.03941645  0.60685947    -0.13400
C692        C  0.18967643  0.99749526  0.61628916     0.00200
C693        C  0.20872326  0.99915921  0.63235050    -0.12000
C694        C  0.24459826  0.04177196  0.63902119     0.02700
C695        C  0.26219559  0.08362373  0.62944535    -0.11400
H696        H  0.19152898  0.03831271  0.59453423     0.08300
H697        H  0.19591753  0.96687795  0.63970345     0.05800
H698        H  0.28942685  0.11673213  0.63479046     0.05700
O699        O  0.39425408  0.38092170  0.59794727    -0.85800
O700        O  0.34275738  0.29356062  0.58350860    -0.82800
C701        C  0.30711919  0.25899870  0.57684037     0.97700
O702        O  0.28572725  0.26578336  0.56465322    -0.82900
O703        O  0.23117235  0.29529222  0.58136266    -0.85500
C704        C  0.22052452  0.32121518  0.58995321     1.02200
O705        O  0.24959375  0.36503109  0.59166986    -0.78300
O706        O  0.32989353  0.37659065  0.60784271    -0.78500
C707        C  0.36636678  0.37351459  0.61021755     1.02200
O708        O  0.41023065  0.42210642  0.56412185    -0.85800
O709        O  0.36905475  0.33404966  0.55002551    -0.82800
C710        C  0.34934412  0.34250236  0.53781081     0.97700
O711        O  0.31180852  0.34340485  0.54039557    -0.82900
O712        O  0.25148962  0.36646443  0.55651414    -0.85500
C713        C  0.27049931  0.41086518  0.55849015     1.02200
O714        O  0.30729717  0.43369916  0.56728258    -0.78300
O715        O  0.38848453  0.45385979  0.58411813    -0.78400
C716        C  0.41289152  0.45827010  0.57096458     1.02100
Cr717      Cr  0.37542797  0.35799479  0.57394688     1.93700
Cr718      Cr  0.27401121  0.32063879  0.56154230     1.93200
Cr719      Cr  0.31944199  0.40401250  0.58693706     1.39100
O720        O  0.32259049  0.36072623  0.57415126    -1.23500
C721        C  0.22793457  0.13639462  0.59537101    -0.09600
C722        C  0.26115310  0.12640658  0.60269576     0.06600
C723        C  0.30956895  0.15781490  0.59956334    -0.03400
C724        C  0.32369646  0.19979288  0.59047372    -0.07800
C725        C  0.29042089  0.21079268  0.58380693     0.05700
C726        C  0.24193493  0.17746793  0.58581245    -0.02800
Br727      Br  0.19248207  0.18631197  0.57674395    -0.02500
H728        H  0.19056791  0.11243255  0.59737117     0.09600
H729        H  0.36104242  0.22405511  0.58859283     0.07700
Br730      Br  0.35778445  0.14409241  0.60642094    -0.02900
C731        C  0.36285672  0.37815256  0.64176455    -0.09600
C732        C  0.37673324  0.36229259  0.62744512     0.06600
C733        C  0.39901668  0.33507093  0.63000951    -0.03400
C734        C  0.40761782  0.32517559  0.64652644    -0.07800
C735        C  0.39561276  0.34287157  0.66072301     0.05700
C736        C  0.37277826  0.36941503  0.65823675    -0.02800
Br737      Br  0.35573134  0.39585135  0.67693055    -0.02500
H738        H  0.34554137  0.39881744  0.64014968     0.09600
H739        H  0.42589571  0.30548250  0.64828357     0.07700
Br740      Br  0.41892190  0.31012999  0.61173690    -0.02900
C741        C  0.63235904  0.67786336  0.49199075    -0.09600
C742        C  0.59129279  0.68086066  0.49360864     0.06600
C743        C  0.57427903  0.69375416  0.47938212    -0.03400
C744        C  0.59982433  0.70640044  0.46419302    -0.07800
C745        C  0.64255495  0.70608799  0.46263701     0.05700
C746        C  0.65781914  0.68976183  0.47667582    -0.02800
Br747      Br  0.71268769  0.68261314  0.47622649    -0.02500
H748        H  0.64565466  0.66790358  0.50290194     0.09600
H749        H  0.58607934  0.71688718  0.45356939     0.07700
Br750      Br  0.51622314  0.69492359  0.48020346    -0.02900
C751        C  0.46559230  0.55380257  0.53723728    -0.09600
C752        C  0.50102306  0.59256299  0.54609896     0.06600
C753        C  0.50712362  0.58721655  0.56366100    -0.03400
C754        C  0.47750611  0.54381998  0.57186671    -0.07800
C755        C  0.44261671  0.50499008  0.56275262     0.05700
C756        C  0.43697655  0.51066178  0.54529093    -0.02800
Br757      Br  0.38896145  0.46163395  0.53172422    -0.02500
H758        H  0.45956555  0.55722650  0.52389776     0.09600
H759        H  0.48275570  0.53994845  0.58523702     0.07700
Br760      Br  0.55744241  0.63618342  0.57676751    -0.02900
C761        C  0.52002540  0.47255212  0.42234160    -0.09600
C762        C  0.51975801  0.46973128  0.44023011     0.06600
C763        C  0.54934371  0.51149275  0.44953173    -0.03400
C764        C  0.57582946  0.55469759  0.44102428    -0.07800
C765        C  0.57558798  0.55744051  0.42320137     0.05700
C766        C  0.54804516  0.51555690  0.41382563    -0.02800
Br767      Br  0.54564354  0.51528977  0.38944804    -0.02500
H768        H  0.49780052  0.44113673  0.41488800     0.09600
H769        H  0.59823939  0.58626828  0.44840195     0.07700
Br770      Br  0.55909939  0.51169538  0.47363509    -0.02900
C771        C  0.43781511  0.38686011  0.50125288    -0.09600
C772        C  0.40779102  0.37299404  0.48712432     0.06600
C773        C  0.35860949  0.34902678  0.48968754    -0.03400
C774        C  0.34027769  0.33936986  0.50624447    -0.07800
C775        C  0.37026873  0.35188713  0.52047781     0.05700
C776        C  0.41973737  0.37622294  0.51778180    -0.02800
Br777      Br  0.46528682  0.39784286  0.53585834    -0.02500
H778        H  0.47566108  0.40456673  0.49937376     0.09600
H779        H  0.30239137  0.32127594  0.50797844     0.07700
Br780      Br  0.31530266  0.32857457  0.47094642    -0.02900
C781        C  0.88300206  0.32792781  0.15178029    -0.09600
C782        C  0.91313871  0.34090326  0.16584439     0.06600
C783        C  0.96168233  0.35856888  0.16322457    -0.03400
C784        C  0.97973074  0.36495580  0.14667250    -0.07800
C785        C  0.94996979  0.35355619  0.13242645     0.05700
C786        C  0.90071415  0.33382261  0.13518670    -0.02800
Br787      Br  0.85540968  0.31702093  0.11714602    -0.02500
H788        H  0.84570325  0.31490623  0.15371005     0.09600
H789        H  0.01724928  0.37895510  0.14496022     0.07700
Br790      Br  0.00448432  0.37436527  0.18198603    -0.02900
C791        C  0.77549904  0.22652202  0.21068136    -0.09600
C792        C  0.81838487  0.26002141  0.21807704     0.06600
C793        C  0.83159713  0.24926656  0.23383121    -0.03400
C794        C  0.80204610  0.20545711  0.24177058    -0.07800
C795        C  0.75957568  0.17171425  0.23410536     0.05700
C796        C  0.74645040  0.18278764  0.21844792    -0.02800
Br797      Br  0.68954278  0.13893115  0.20683880    -0.02500
H798        H  0.76490689  0.23414463  0.19857876     0.09600
H799        H  0.81315196  0.19698902  0.25359455     0.07700
Br800      Br  0.89135187  0.29131524  0.24418799    -0.02900
C801        C  0.87042131  0.13164362  0.09593815    -0.09600
C802        C  0.82878044  0.12746607  0.10270058     0.06600
C803        C  0.81885026  0.16420262  0.09955265    -0.03400
C804        C  0.85121154  0.20472645  0.09047780    -0.07800
C805        C  0.89395103  0.20984003  0.08424356     0.05700
C806        C  0.90265437  0.17177412  0.08679798    -0.02800
Br807      Br  0.95739022  0.17089333  0.07830987    -0.02500
H808        H  0.87843334  0.10358351  0.09803130     0.09600
H809        H  0.84324986  0.23290104  0.08866642     0.07700
Br810      Br  0.76091196  0.16024947  0.10673324    -0.02900
C811        C  0.76333918  0.03575248  0.16973080    -0.09600
C812        C  0.74082705  0.04652184  0.15681902     0.06600
C813        C  0.69924684  0.04731747  0.16065576    -0.03400
C814        C  0.68025493  0.03626095  0.17712958    -0.07800
C815        C  0.70173367  0.02361123  0.19006706     0.05700
C816        C  0.74454054  0.02438793  0.18616700    -0.02800
Br817      Br  0.77898001  0.00821937  0.20199859    -0.02500
H818        H  0.79477999  0.03398609  0.16675464     0.09600
H819        H  0.64790435  0.03663274  0.17968406     0.07700
Br820      Br  0.66558002  0.06008424  0.14346761    -0.02900
C821        C  0.93365816  0.39835483  0.00428632    -0.09600
C822        C  0.93506872  0.36928641  0.99146333     0.06600
C823        C  0.95367585  0.33961193  0.99530426    -0.03400
C824        C  0.96657018  0.33647827  0.01198903    -0.07800
C825        C  0.96248323  0.36337909  0.02517317     0.05700
C826        C  0.94759956  0.39623418  0.02091531    -0.02800
Br827      Br  0.94473578  0.43970444  0.03665780    -0.02500
H828        H  0.92028043  0.42198024  0.00146106     0.09600
H829        H  0.97960849  0.31249823  0.01461988     0.07700
Br830      Br  0.96453121  0.30414426  0.97823674    -0.02900
C831        C  0.93045888  0.45659219  0.92369936    -0.09600
C832        C  0.91703981  0.45300838  0.94089809     0.06600
C833        C  0.91955756  0.49296333  0.94894294    -0.03400
C834        C  0.93791139  0.53586681  0.94017771    -0.07800
C835        C  0.95219304  0.53968185  0.92314895     0.05700
C836        C  0.94752289  0.49937720  0.91477533    -0.02800
Br837      Br  0.96678966  0.50193444  0.89159448    -0.02500
H838        H  0.92875207  0.42634536  0.91729922     0.09600
H839        H  0.93997714  0.56629156  0.94659442     0.07700
Br840      Br  0.89548479  0.49039271  0.97145145    -0.02900
C841        C  0.08555443  0.53391725  0.06468813    -0.09600
C842        C  0.04050358  0.50579706  0.07201808     0.06600
C843        C  0.00625449  0.51967586  0.06931438    -0.03400
C844        C  0.01686517  0.55895178  0.05892407    -0.07800
C845        C  0.06149358  0.58587580  0.05135693     0.05700
C846        C  0.09616971  0.57336247  0.05458571    -0.02800
Br847      Br  0.15821554  0.60783986  0.04484672    -0.02500
H848        H  0.11273429  0.52453587  0.06637729     0.09600
H849        H  0.99022251  0.56892095  0.05690074     0.07700
Br850      Br  0.94467818  0.48758896  0.07953846    -0.02900
C851        C  0.99936041  0.67814939  0.97757285    -0.09600
C852        C  0.03198839  0.68765040  0.96429217     0.06600
C853        C  0.07175854  0.68243610  0.96776245    -0.03400
C854        C  0.07917171  0.67093246  0.98420227    -0.07800
C855        C  0.04770028  0.66374918  0.99747480     0.05700
C856        C  0.00703721  0.66652888  0.99398456    -0.02800
Br857      Br  0.96251000  0.65728015  0.01154011    -0.02500
H858        H  0.96804470  0.68070992  0.97533948     0.09600
H859        H  0.11101526  0.66963056  0.98685621     0.07700
Br860      Br  0.11847409  0.69108899  0.95111929    -0.02900
C861        C  0.59995111  0.72407883  0.33846716    -0.09600
C862        C  0.61731347  0.71169108  0.32429336     0.06600
C863        C  0.64683152  0.69229007  0.32673024    -0.03400
C864        C  0.65659866  0.68332265  0.34317610    -0.07800
C865        C  0.63730648  0.69338387  0.35748676     0.05700
C866        C  0.60994687  0.71556591  0.35497155    -0.02800
Br867      Br  0.58674103  0.73735345  0.37327263    -0.02500
H868        H  0.57734604  0.73915105  0.33667151     0.09600
H869        H  0.67881074  0.66772502  0.34474041     0.07700
Br870      Br  0.67403313  0.67693685  0.30786581    -0.02900
C871        C  0.57480903  0.79677865  0.26108370    -0.09600
C872        C  0.60923627  0.79287528  0.27055078     0.06600
C873        C  0.65642501  0.83062514  0.26974047    -0.03400
C874        C  0.66718030  0.87226882  0.26100627    -0.07800
C875        C  0.63233962  0.87701226  0.25219715     0.05700
C876        C  0.58597365  0.83764408  0.25171832    -0.02800
Br877      Br  0.53532623  0.83743505  0.23932635    -0.02500
H878        H  0.53844334  0.76816499  0.26124643     0.09600
H879        H  0.70333256  0.90136639  0.26113783     0.07700
Br880      Br  0.70855135  0.82682110  0.27921427    -0.02900
C881        C  0.73683473  0.88845633  0.40566649    -0.09600
C882        C  0.72909008  0.84795237  0.39670005     0.06600
C883        C  0.73881374  0.85181081  0.37909564    -0.03400
C884        C  0.75389074  0.89470067  0.37067054    -0.07800
C885        C  0.76029431  0.93496934  0.37941946     0.05700
C886        C  0.75201243  0.93168653  0.39719900    -0.02800
Br887      Br  0.75736026  0.98372992  0.41042174    -0.02500
H888        H  0.72967389  0.88611892  0.41918631     0.09600
H889        H  0.76124215  0.89675508  0.35716508     0.07700
Br890      Br  0.73556806  0.80071193  0.36597633    -0.02900
C891        C  0.72501970  0.05202873  0.32703499    -0.09600
C892        C  0.74203334  0.02032875  0.32903036     0.06600
C893        C  0.74199149  0.99379658  0.31479900    -0.03400
C894        C  0.72667973  0.00051370  0.29894489    -0.07800
C895        C  0.71067110  0.03292473  0.29695034     0.05700
C896        C  0.70927723  0.05831517  0.31122183    -0.02800
Br897      Br  0.68998330  0.10486686  0.30947764    -0.02500
H898        H  0.72517433  0.07298831  0.33776434     0.09600
H899        H  0.72752141  0.98048024  0.28807208     0.07700
Br900      Br  0.76551916  0.95045169  0.31586960    -0.02900
C901        C  0.41592320  0.19702696  0.72763058    -0.09600
C902        C  0.36784755  0.16998400  0.73189775     0.06600
C903        C  0.33703845  0.18606278  0.72662343    -0.03400
C904        C  0.35428568  0.22783355  0.71708324    -0.07800
C905        C  0.40217439  0.25438875  0.71255534     0.05700
C906        C  0.43309499  0.23857625  0.71795549    -0.02800
Br907      Br  0.49821686  0.27015395  0.71123573    -0.02500
H908        H  0.43988053  0.18458497  0.73112479     0.09600
H909        H  0.33020609  0.23982809  0.71325980     0.07700
Br910      Br  0.27141858  0.15327186  0.73267200    -0.02900
C911        C  0.30720605  0.01950996  0.67508668    -0.09600
C912        C  0.28136934  0.02050350  0.68928571     0.06600
C913        C  0.24662146  0.03378620  0.68671168    -0.03400
C914        C  0.23735578  0.04360739  0.67029063    -0.07800
C915        C  0.26215265  0.04094897  0.65622170     0.05700
C916        C  0.29760715  0.02923900  0.65870267    -0.02800
Br917      Br  0.33209734  0.02389872  0.63990936    -0.02500
H918        H  0.33430139  0.01001535  0.67661902     0.09600
H919        H  0.20954351  0.05196527  0.66840225     0.07700
Br920      Br  0.21029290  0.03982190  0.70473876    -0.02900
C921        C  0.28039007  0.00372318  0.82581125    -0.09600
C922        C  0.24076296  0.00897773  0.82804524     0.06600
C923        C  0.22445103  0.02420877  0.81423028    -0.03400
C924        C  0.24749148  0.03373427  0.79853618    -0.07800
C925        C  0.28769025  0.02916435  0.79613348     0.05700
C926        C  0.30412375  0.01387075  0.81013846    -0.02800
Br927      Br  0.35890861  0.00666223  0.80927261    -0.02500
H928        H  0.29393345  0.99323868  0.83650654     0.09600
H929        H  0.23381323  0.04517244  0.78817239     0.07700
Br930      Br  0.17078870  0.03295218  0.81622595    -0.02900
C931        C  0.08234375  0.83460712  0.88157160    -0.09600
C932        C  0.09349312  0.83068576  0.89850773     0.06600
C933        C  0.13284030  0.86945370  0.90607595    -0.03400
C934        C  0.15967520  0.91154156  0.89679002    -0.07800
C935        C  0.14822908  0.91572707  0.87982253     0.05700
C936        C  0.10872789  0.87652302  0.87230807    -0.02800
Br937      Br  0.08694981  0.87871707  0.84983714    -0.02500
H938        H  0.05241218  0.80483783  0.87553936     0.09600
H939        H  0.19005561  0.94090650  0.90276563     0.07700
Br940      Br  0.15291333  0.86518481  0.92855777    -0.02900
C941        C  0.19675513  0.79608137  0.76089741    -0.09600
C942        C  0.15813313  0.79011402  0.77072337     0.06600
C943        C  0.14580285  0.82592795  0.76999600    -0.03400
C944        C  0.17431820  0.86791310  0.76100505    -0.07800
C945        C  0.21443627  0.87493354  0.75193782     0.05700
C946        C  0.22430231  0.83737940  0.75140478    -0.02800
Br947      Br  0.27641459  0.84069820  0.73896762    -0.02500
H948        H  0.20664221  0.76894908  0.76098065     0.09600
H949        H  0.16507692  0.89552453  0.76118552     0.07700
Br950      Br  0.08909499  0.81896372  0.78003193    -0.02900
C951        C  0.10364888  0.72243322  0.83983396    -0.09600
C952        C  0.07472919  0.70784465  0.82541123     0.06600
C953        C  0.02527969  0.68288505  0.82750772    -0.03400
C954        C  0.00559487  0.67180930  0.84379003    -0.07800
C955        C  0.03429152  0.68415815  0.85832294     0.05700
C956        C  0.08403903  0.71076911  0.85620233    -0.02800
Br957      Br  0.12771542  0.73278676  0.87484133    -0.02500
H958        H  0.14167417  0.74095737  0.83833154     0.09600
H959        H  0.96751075  0.65198097  0.84504307     0.07700
Br960      Br  0.98305378  0.66068714  0.80839484    -0.02900
C961        C  0.95242830  0.46844744  0.21471919    -0.09600
C962        C  0.90407408  0.43832785  0.21211184     0.06600
C963        C  0.87320089  0.45637627  0.21400599    -0.03400
C964        C  0.89103912  0.50384185  0.21885032    -0.07800
C965        C  0.93978150  0.53432748  0.22142052     0.05700
C966        C  0.97061300  0.51582552  0.21918411    -0.02800
Br967      Br  0.03798192  0.55132220  0.22246067    -0.02500
H968        H  0.97645524  0.45495352  0.21303444     0.09600
H969        H  0.86676974  0.51704657  0.22042872     0.07700
Br970      Br  0.80712391  0.41839745  0.20911382    -0.02900
C971        C  0.79326526  0.67052689  0.21888199    -0.09600
C972        C  0.76750064  0.62308748  0.21351454     0.06600
C973        C  0.78412280  0.59208012  0.21793959    -0.03400
C974        C  0.82544145  0.60859751  0.22759775    -0.07800
C975        C  0.85170247  0.65620231  0.23270419     0.05700
C976        C  0.83501365  0.68721159  0.22835633    -0.02800
Br977      Br  0.86669813  0.75202814  0.23566561    -0.02500
H978        H  0.78081134  0.69471342  0.21568443     0.09600
H979        H  0.83834288  0.58456175  0.23043982     0.07700
Br980      Br  0.75440645  0.52806966  0.20976683    -0.02900
C981        C  0.00253411  0.72083828  0.17934569    -0.09600
C982        C  0.00186000  0.74573708  0.19387658     0.06600
C983        C  0.98567773  0.77860462  0.19216102    -0.03400
C984        C  0.97319023  0.78741222  0.17611046    -0.07800
C985        C  0.97596483  0.76384625  0.16165736     0.05700
C986        C  0.98999941  0.72978759  0.16339324    -0.02800
Br987      Br  0.99541755  0.69682056  0.14405560    -0.02500
H988        H  0.01399515  0.69499175  0.18025984     0.09600
H989        H  0.96323122  0.81432557  0.17477493     0.07700
Br990      Br  0.97952764  0.81309681  0.21086270    -0.02900
C991        C  0.43390543  0.89642242  0.28558923    -0.09600
C992        C  0.40388501  0.91056527  0.27801130     0.06600
C993        C  0.41954090  0.93963879  0.26348004    -0.03400
C994        C  0.46529853  0.95621190  0.25738369    -0.07800
C995        C  0.49601102  0.94414987  0.26548782     0.05700
C996        C  0.47963007  0.91262414  0.27925043    -0.02800
Br997      Br  0.51928870  0.89293759  0.29019475    -0.02500
H998        H  0.42236929  0.87421289  0.29666666     0.09600
H999        H  0.47742607  0.97972155  0.24666372     0.07700
Br1000     Br  0.38203644  0.96188034  0.25235840    -0.02900
C1001       C  0.14423814  0.78780142  0.27693448    -0.09600
C1002       C  0.14119548  0.79933864  0.25996711     0.06600
C1003       C  0.18207742  0.83466713  0.25187190    -0.03400
C1004       C  0.22493790  0.85809500  0.26082532    -0.07800
C1005       C  0.22823837  0.84623736  0.27779160     0.05700
C1006       C  0.18724917  0.81009825  0.28574209    -0.02800
Br1007     Br  0.18848697  0.78627567  0.30794281    -0.02500
H1008       H  0.11325789  0.75988173  0.28317290     0.09600
H1009       H  0.25585652  0.88576685  0.25449903     0.07700
Br1010     Br  0.18067070  0.85324049  0.22886599    -0.02900
C1011       C  0.92426328  0.82251363  0.37987160    -0.09600
C1012       C  0.93948274  0.78928741  0.37891611     0.06600
C1013       C  0.90816984  0.74179562  0.38305885    -0.03400
C1014       C  0.86201092  0.72779916  0.38771103    -0.07800
C1015       C  0.84586629  0.76047675  0.38843625     0.05700
C1016       C  0.87779717  0.80859755  0.38468338    -0.02800
Br1017     Br  0.85993895  0.85641222  0.38499953    -0.02500
H1018       H  0.94815642  0.85901389  0.37636846     0.09600
H1019       H  0.83882409  0.69100085  0.39103207     0.07700
Br1020     Br  0.92692733  0.69461487  0.38249833    -0.02900
C1021       C  0.02195623  0.80291593  0.31630331    -0.09600
C1022       C  0.02557432  0.77761606  0.32997783     0.06600
C1023       C  0.01571115  0.73087783  0.32744206    -0.03400
C1024       C  0.00091922  0.70956442  0.31146248    -0.07800
C1025       C  0.99507806  0.73398350  0.29778330     0.05700
C1026       C  0.00714515  0.78190891  0.30029194    -0.02800
Br1027     Br  0.00446167  0.82166939  0.28282503    -0.02500
H1028       H  0.02877243  0.83869265  0.31830635     0.09600
H1029       H  0.99292902  0.67329152  0.30988543     0.07700
Br1030     Br  0.01929168  0.69405822  0.34576493    -0.02900
C1031       C  0.44082754  0.25659452  0.45488991    -0.09600
C1032       C  0.44649791  0.29112111  0.44283821     0.06600
C1033       C  0.44137696  0.27884102  0.42539687    -0.03400
C1034       C  0.42885537  0.23267323  0.42057791    -0.07800
C1035       C  0.41941601  0.19771993  0.43277880     0.05700
C1036       C  0.42605915  0.20998125  0.45003241    -0.02800
Br1037     Br  0.41331171  0.16384924  0.46736107    -0.02500
H1038       H  0.44559069  0.26527099  0.46831469     0.09600
H1039       H  0.42321805  0.22311167  0.40722065     0.07700
Br1040     Br  0.44510277  0.32074537  0.40756354    -0.02900
C1041       C  0.12353911  0.90878221  0.39054770    -0.09600
C1042       C  0.11592370  0.86715228  0.38237623     0.06600
C1043       C  0.15115189  0.85432412  0.38358081    -0.03400
C1044       C  0.19364708  0.88421011  0.39199216    -0.07800
C1045       C  0.20173918  0.92650347  0.39979612     0.05700
C1046       C  0.16552659  0.93810508  0.39929655    -0.02800
Br1047     Br  0.17159566  0.99473324  0.40922640    -0.02500
H1048       H  0.09696276  0.91925238  0.38980734     0.09600
H1049       H  0.22058143  0.87417138  0.39247017     0.07700
Br1050     Br  0.14259128  0.79537216  0.37494758    -0.02900
C1051       C  0.34851100  0.94506186  0.35777954    -0.09600
C1052       C  0.35352369  0.99055225  0.35874462     0.06600
C1053       C  0.34446220  0.00936785  0.34388025    -0.03400
C1054       C  0.33251213  0.98350142  0.32863344    -0.07800
C1055       C  0.32889873  0.93890005  0.32778554     0.05700
C1056       C  0.33633954  0.91941707  0.34255836    -0.02800
Br1057     Br  0.32998676  0.85764401  0.34251445    -0.02500
H1058       H  0.35401760  0.92901994  0.36893546     0.09600
H1059       H  0.32714267  0.99880703  0.31723243     0.07700
Br1060     Br  0.34823080  0.07005515  0.34301949    -0.02900
C1061       C  0.56339882  0.83326272  0.55028903    -0.09600
C1062       C  0.61181244  0.86198147  0.55398424     0.06600
C1063       C  0.64208622  0.84296299  0.55156828    -0.03400
C1064       C  0.62393516  0.79727393  0.54524547    -0.07800
C1065       C  0.57601847  0.76911300  0.54144933     0.05700
C1066       C  0.54537440  0.78701878  0.54408297    -0.02800
Br1067     Br  0.47937737  0.75016081  0.53888560    -0.02500
H1068       H  0.53956866  0.84683894  0.55209262     0.09600
H1069       H  0.64752092  0.78334367  0.54329567     0.07700
Br1070     Br  0.70817348  0.87495652  0.55734565    -0.02900
C1071       C  0.66141053  0.11435855  0.50512646    -0.09600
C1072       C  0.67078819  0.09321310  0.49131858     0.06600
C1073       C  0.68643553  0.06084275  0.49434621    -0.03400
C1074       C  0.69273174  0.05025302  0.51105593    -0.07800
C1075       C  0.68437326  0.07210124  0.52504988     0.05700
C1076       C  0.66797676  0.10427270  0.52186617    -0.02800
Br1077     Br  0.65253272  0.13525631  0.53946941    -0.02500
H1078       H  0.64978335  0.13969836  0.50283705     0.09600
H1079       H  0.70491354  0.02525840  0.51306846     0.07700
Br1080     Br  0.70026578  0.03092779  0.47597302    -0.02900
C1081       C  0.54227838  0.09088614  0.44910590    -0.09600
C1082       C  0.58043296  0.09465078  0.43966095     0.06600
C1083       C  0.57378720  0.08422849  0.42201144    -0.03400
C1084       C  0.53039775  0.07205389  0.41425506    -0.07800
C1085       C  0.49243342  0.06805823  0.42386331     0.05700
C1086       C  0.49875729  0.07730569  0.44148987    -0.02800
Br1087     Br  0.44998181  0.07435895  0.45585173    -0.02500
H1088       H  0.54643043  0.09921712  0.46256314     0.09600
H1089       H  0.52576599  0.06404668  0.40077515     0.07700
Br1090     Br  0.62053975  0.08160474  0.40805169    -0.02900
C1091       C  0.44215028  0.92046750  0.55649585    -0.09600
C1092       C  0.43344685  0.95422141  0.54882936     0.06600
C1093       C  0.46841511  0.00263819  0.55021798    -0.03400
C1094       C  0.51178258  0.01581906  0.55805640    -0.07800
C1095       C  0.52082196  0.98196512  0.56543629     0.05700
C1096       C  0.48471040  0.93377930  0.56495728    -0.02800
Br1097     Br  0.49112039  0.88358123  0.57490175    -0.02500
H1098       H  0.41586562  0.88318289  0.55570134     0.09600
H1099       H  0.53835966  0.05304719  0.55867843     0.07700
Br1100     Br  0.45799951  0.05289318  0.54295901    -0.02900
C1101       C  0.35402619  0.94013342  0.48387117    -0.09600
C1102       C  0.34438872  0.96069501  0.49778147     0.06600
C1103       C  0.32811286  0.99268123  0.49501316    -0.03400
C1104       C  0.32262418  0.00439679  0.47841037    -0.07800
C1105       C  0.33167288  0.98345536  0.46433103     0.05700
C1106       C  0.34743109  0.95070567  0.46724495    -0.02800
Br1107     Br  0.36176693  0.91949933  0.44940834    -0.02500
H1108       H  0.36553613  0.91461803  0.48599280     0.09600
H1109       H  0.31044559  0.02945242  0.47652332     0.07700
Br1110     Br  0.31224808  0.02049327  0.51354849    -0.02900
C1111       C  0.10932752  0.25515551  0.61661163    -0.09600
C1112       C  0.07935122  0.26870906  0.60865772     0.06600
C1113       C  0.09582649  0.29807547  0.59420293    -0.03400
C1114       C  0.14186641  0.31444835  0.58830932    -0.07800
C1115       C  0.17197476  0.30159888  0.59645524     0.05700
C1116       C  0.15516882  0.27098056  0.61050584    -0.02800
Br1117     Br  0.19457318  0.25218231  0.62219031    -0.02500
H1118       H  0.09730996  0.23295269  0.62782094     0.09600
H1119       H  0.15442185  0.33773956  0.57738482     0.07700
Br1120     Br  0.05814922  0.31950541  0.58276323    -0.02900
C1121       C  0.87276596  0.20860612  0.60355296    -0.09600
C1122       C  0.90139952  0.18933675  0.60788434     0.06600
C1123       C  0.88537046  0.14143822  0.60399426    -0.03400
C1124       C  0.84204233  0.11405018  0.59570589    -0.07800
C1125       C  0.81325179  0.13309854  0.59140925     0.05700
C1126       C  0.82905226  0.18096474  0.59537748    -0.02800
Br1127     Br  0.79374356  0.21092756  0.58895844    -0.02500
H1128       H  0.88470241  0.24541905  0.60638371     0.09600
H1129       H  0.83009449  0.07713134  0.59305975     0.07700
Br1130     Br  0.91977026  0.11077759  0.61081433    -0.02900
C1131       C  0.51789229  0.07555776  0.73101159    -0.09600
C1132       C  0.48851641  0.08631742  0.72134191     0.06600
C1133       C  0.50641668  0.11485541  0.70684474    -0.03400
C1134       C  0.55309947  0.13088129  0.70185280    -0.07800
C1135       C  0.58208912  0.11861250  0.71119252     0.05700
C1136       C  0.56423997  0.09098798  0.72596988    -0.02800
Br1137     Br  0.59974999  0.06912255  0.73865883    -0.02500
H1138       H  0.50417049  0.05371606  0.74227384     0.09600
H1139       H  0.56628921  0.15137046  0.69028156     0.07700
Br1140     Br  0.46743547  0.12993911  0.69306086    -0.02900
C1141       C  0.67524088  0.12205976  0.65035868    -0.09600
C1142       C  0.66555366  0.09207793  0.66429660     0.06600
C1143       C  0.64852416  0.04358321  0.66163167    -0.03400
C1144       C  0.64176891  0.02578443  0.64503886    -0.07800
C1145       C  0.65072433  0.05559394  0.63091096     0.05700
C1146       C  0.66778350  0.10445764  0.63377622    -0.02800
Br1147     Br  0.68278458  0.15003826  0.61596345    -0.02500
H1148       H  0.68764042  0.15936882  0.65243727     0.09600
H1149       H  0.62881671  0.98830618  0.64320762     0.07700
Br1150     Br  0.63372548  0.00066192  0.68030967    -0.02900
C1151       C  0.68286571  0.86864180  0.10329245    -0.09600
C1152       C  0.71732976  0.85732260  0.09811470     0.06600
C1153       C  0.76538303  0.89361356  0.09850199    -0.03400
C1154       C  0.77744071  0.93950674  0.10375973    -0.07800
C1155       C  0.74264454  0.95024589  0.10875583     0.05700
C1156       C  0.69494584  0.91426085  0.10841695    -0.02800
Br1157     Br  0.64434063  0.92576321  0.11407774    -0.02500
H1158       H  0.64570071  0.84212191  0.10297165     0.09600
H1159       H  0.81433292  0.96682080  0.10427111     0.07700
Br1160     Br  0.81662379  0.88351995  0.09253949    -0.02900
C1161       C  0.85827393  0.77432161  0.11529983    -0.09600
C1162       C  0.89460785  0.76915216  0.10799204     0.06600
C1163       C  0.88786327  0.74958128  0.09145267    -0.03400
C1164       C  0.84564682  0.73620608  0.08259039    -0.07800
C1165       C  0.80924160  0.74080012  0.09011938     0.05700
C1166       C  0.81590306  0.75999147  0.10664172    -0.02800
Br1167     Br  0.76811451  0.76746658  0.11803317    -0.02500
H1168       H  0.86277267  0.78941446  0.12792867     0.09600
H1169       H  0.84046189  0.72036542  0.07007255     0.07700
Br1170     Br  0.93289409  0.73600851  0.08105404    -0.02900
C1171       C  0.68272049  0.62809066  0.12998763    -0.09600
C1172       C  0.65949388  0.65457112  0.12908212     0.06600
C1173       C  0.65156728  0.67262610  0.14432913    -0.03400
C1174       C  0.66404772  0.66137804  0.15996105    -0.07800
C1175       C  0.68526741  0.63317268  0.16076946     0.05700
C1176       C  0.69563939  0.61749476  0.14561086    -0.02800
Br1177     Br  0.72444506  0.57874475  0.14577947    -0.02500
H1178       H  0.69043863  0.61497218  0.11846991     0.09600
H1179       H  0.65506719  0.67278270  0.17163238     0.07700
Br1180     Br  0.62064487  0.70949618  0.14497643    -0.02900
C1181       C  0.75109360  0.54966290  0.94295442    -0.09600
C1182       C  0.73222185  0.57998696  0.94374466     0.06600
C1183       C  0.76007959  0.62724335  0.93846345    -0.03400
C1184       C  0.80631058  0.64397755  0.93303516    -0.07800
C1185       C  0.82617475  0.61441684  0.93253731     0.05700
C1186       C  0.79764673  0.56635587  0.93727805    -0.02800
Br1187     Br  0.82088921  0.52279706  0.93738252    -0.02500
H1188       H  0.73013051  0.51341290  0.94728198     0.09600
H1189       H  0.82680677  0.68062949  0.92908215     0.07700
Br1190     Br  0.73671923  0.67080537  0.93877205    -0.02900
C1191       C  0.64701623  0.63925232  0.99438961    -0.09600
C1192       C  0.65082420  0.59840864  0.99332255     0.06600
C1193       C  0.66468431  0.58326555  0.00781813    -0.03400
C1194       C  0.67568095  0.60951163  0.02291186    -0.07800
C1195       C  0.67324478  0.65140568  0.02405521     0.05700
C1196       C  0.65784201  0.66570200  0.00950035    -0.02800
Br1197     Br  0.65056063  0.72060779  0.00893737    -0.02500
H1198       H  0.63678870  0.65139093  0.98322611     0.09600
H1199       H  0.68623477  0.59681798  0.03382765     0.07700
Br1200     Br  0.66855173  0.52644592  0.00760348    -0.02900
C1201       C  0.23063421  0.46431010  0.03868630    -0.09600
C1202       C  0.25619645  0.44466857  0.04604423     0.06600
C1203       C  0.23599525  0.41214448  0.05944602    -0.03400
C1204       C  0.19060512  0.39912901  0.06504170    -0.07800
C1205       C  0.16457509  0.41777796  0.05742286     0.05700
C1206       C  0.18508375  0.45122361  0.04434513    -0.02800
Br1207     Br  0.15282972  0.48072805  0.03438141    -0.02500
H1208       H  0.24594543  0.48931426  0.02831145     0.09600
H1209       H  0.17498103  0.37325508  0.07513912     0.07700
Br1210     Br  0.26737562  0.38193785  0.06965318    -0.02900
C1211       C  0.43934712  0.56095706  0.05537730    -0.09600
C1212       C  0.43318096  0.52082962  0.04642619     0.06600
C1213       C  0.47088437  0.51125893  0.04643863    -0.03400
C1214       C  0.51327709  0.54187025  0.05486570    -0.07800
C1215       C  0.51917373  0.58177210  0.06388462     0.05700
C1216       C  0.48114620  0.59081393  0.06416745    -0.02800
Br1217     Br  0.48374085  0.64428702  0.07551606    -0.02500
H1218       H  0.41142143  0.56961972  0.05542956     0.09600
H1219       H  0.54172996  0.53396387  0.05453762     0.07700
Br1220     Br  0.46643759  0.45563624  0.03634629    -0.02900
C1221       C  0.28230939  0.16258418  0.89246309    -0.09600
C1222       C  0.26167401  0.18877046  0.88669538     0.06600
C1223       C  0.22165270  0.16677218  0.87610057    -0.03400
C1224       C  0.20360988  0.11942067  0.87118078    -0.07800
C1225       C  0.22447057  0.09340736  0.87698980     0.05700
C1226       C  0.26393316  0.11528489  0.88778299    -0.02800
Br1227     Br  0.29576464  0.08277854  0.89547445    -0.02500
H1228       H  0.31303069  0.17907177  0.90067582     0.09600
H1229       H  0.17423029  0.10329079  0.86235450     0.07700
Br1230     Br  0.19335622  0.20108346  0.86689755    -0.02900
C1231       C  0.47121501  0.44300499  0.94156639    -0.09600
C1232       C  0.46766069  0.45416860  0.92460374     0.06600
C1233       C  0.50794574  0.49056204  0.91656836    -0.03400
C1234       C  0.55077027  0.51522080  0.92554683    -0.07800
C1235       C  0.55461474  0.50382208  0.94254153     0.05700
C1236       C  0.51413980  0.46663121  0.95042267    -0.02800
Br1237     Br  0.51591526  0.44333786  0.97266827    -0.02500
H1238       H  0.44069194  0.41443827  0.94779266     0.09600
H1239       H  0.58111375  0.54375579  0.91925637     0.07700
Br1240     Br  0.50535628  0.50928923  0.89368555    -0.02900
C1241       C  0.33775586  0.37558550  0.97400746    -0.09600
C1242       C  0.30973953  0.38449479  0.96273488     0.06600
C1243       C  0.29359026  0.41539464  0.96792746    -0.03400
C1244       C  0.30663284  0.43746172  0.98382436    -0.07800
C1245       C  0.33428128  0.42826027  0.99516835     0.05700
C1246       C  0.34949408  0.39655756  0.99014977    -0.02800
Br1247     Br  0.38237059  0.37694038  0.00523376    -0.02500
H1248       H  0.35038592  0.35185825  0.97031126     0.09600
H1249       H  0.29342482  0.46061381  0.98766531     0.07700
Br1250     Br  0.25008956  0.42569488  0.95475241    -0.02900
C1251       C  0.09629565  0.55148895  0.76753285    -0.09600
C1252       C  0.04805076  0.51755664  0.76948408     0.06600
C1253       C  0.01779649  0.53209913  0.77691459    -0.03400
C1254       C  0.03543375  0.57944810  0.78114346    -0.07800
C1255       C  0.08321307  0.61322286  0.77896849     0.05700
C1256       C  0.11405418  0.59883353  0.77239153    -0.02800
Br1257     Br  0.18074532  0.64169841  0.77067792    -0.02500
H1258       H  0.12041503  0.54135308  0.76210627     0.09600
H1259       H  0.01155057  0.58998741  0.78653935     0.07700
Br1260     Br  0.95209115  0.49061325  0.78219134    -0.02900
C1261       C  0.84357857  0.25280062  0.71279148    -0.09600
C1262       C  0.84658112  0.24995518  0.73049552     0.06600
C1263       C  0.80539907  0.21991843  0.73974151    -0.03400
C1264       C  0.76266912  0.19205017  0.73113356    -0.07800
C1265       C  0.75947526  0.19467710  0.71334388     0.05700
C1266       C  0.80058902  0.22669160  0.70423966    -0.02800
Br1267     Br  0.80028947  0.24050876  0.68049449    -0.02500
H1268       H  0.87468847  0.27710923  0.70560448     0.09600
H1269       H  0.73180059  0.16786546  0.73842709     0.07700
Br1270     Br  0.80579860  0.21415499  0.76400323    -0.02900
C1271       C  0.97585961  0.31148821  0.66232908    -0.09600
C1272       C  0.99490548  0.28212078  0.65899931     0.06600
C1273       C  0.01863704  0.27320622  0.67217475    -0.03400
C1274       C  0.02484729  0.29521350  0.68797650    -0.07800
C1275       C  0.00720031  0.32588173  0.69125484     0.05700
C1276       C  0.98146373  0.33310146  0.67827253    -0.02800
Br1277     Br  0.95077064  0.36964566  0.68156738    -0.02500
H1278       H  0.95698663  0.31812477  0.65239104     0.09600
H1279       H  0.04352290  0.28797368  0.69781752     0.07700
Br1280     Br  0.04119675  0.22928196  0.66966137    -0.02900
C1281       C  0.96583057  0.24478648  0.81689718    -0.09600
C1282       C  0.99496500  0.27972354  0.82868554     0.06600
C1283       C  0.01436707  0.32783377  0.82423657    -0.03400
C1284       C  0.00447705  0.33986414  0.80826442    -0.07800
C1285       C  0.97499306  0.30474106  0.79656069     0.05700
C1286       C  0.95527223  0.25669660  0.80112070    -0.02800
Br1287     Br  0.91073556  0.20544055  0.78707908    -0.02500
H1288       H  0.95006134  0.20764508  0.82018207     0.09600
H1289       H  0.02004298  0.37697790  0.80496914     0.07700
Br1290     Br  0.05176626  0.37852404  0.83973181    -0.02900
C1291       C  0.12232239  0.32780260  0.88124277    -0.09600
C1292       C  0.09204305  0.27900096  0.87870947     0.06600
C1293       C  0.10560703  0.24708836  0.88503160    -0.03400
C1294       C  0.14800731  0.26412429  0.89402961    -0.07800
C1295       C  0.17848458  0.31292233  0.89649029     0.05700
C1296       C  0.16525205  0.34490956  0.88996003    -0.02800
Br1297     Br  0.20314594  0.41207220  0.89330195    -0.02500
H1298       H  0.11220705  0.35273867  0.87661011     0.09600
H1299       H  0.15810099  0.23907913  0.89856338     0.07700
Br1300     Br  0.06950017  0.18021800  0.88057030    -0.02900
C1301       C  0.21519263  0.41272362  0.75875293    -0.09600
C1302       C  0.22080714  0.42935206  0.77563563     0.06600
C1303       C  0.18278517  0.43082193  0.78354473    -0.03400
C1304       C  0.14010705  0.41459313  0.77483231    -0.07800
C1305       C  0.13467645  0.39815740  0.75803143     0.05700
C1306       C  0.17266558  0.39750979  0.74991876    -0.02800
Br1307     Br  0.16725946  0.37452556  0.72709250    -0.02500
H1308       H  0.24393758  0.41142491  0.75243688     0.09600
H1309       H  0.11125812  0.41591260  0.78107717     0.07700
Br1310     Br  0.18810227  0.45830898  0.80562814    -0.02900
C1311       C  0.30790693  0.38428056  0.82819617    -0.09600
C1312       C  0.31762907  0.43097127  0.82611303     0.06600
C1313       C  0.33732823  0.46299399  0.83977803    -0.03400
C1314       C  0.34657111  0.44801919  0.85519419    -0.07800
C1315       C  0.33735921  0.40133447  0.85741598     0.05700
C1316       C  0.31788128  0.36926078  0.84355936    -0.02800
Br1317     Br  0.30382577  0.30459586  0.84435438    -0.02500
H1318       H  0.29381573  0.35974441  0.81761613     0.09600
H1319       H  0.36134982  0.47340367  0.86549627     0.07700
Br1320     Br  0.35214578  0.52777004  0.83810041    -0.02900
C1321       C  0.57183547  0.49598077  0.71925803    -0.09600
C1322       C  0.55322329  0.52669912  0.72011694     0.06600
C1323       C  0.50550742  0.50899598  0.71520882    -0.03400
C1324       C  0.47836589  0.46230094  0.70972724    -0.07800
C1325       C  0.49713414  0.43209526  0.70870680     0.05700
C1326       C  0.54431703  0.44913664  0.71353828    -0.02800
Br1327     Br  0.57332859  0.41076983  0.71171249    -0.02500
H1328       H  0.60809804  0.50843488  0.72297671     0.09600
H1329       H  0.44200752  0.44940557  0.70597616     0.07700
Br1330     Br  0.47317068  0.54470816  0.71572843    -0.02900
C1331       C  0.47139221  0.53920489  0.76520312    -0.09600
C1332       C  0.49202138  0.58869468  0.76637367     0.06600
C1333       C  0.46395745  0.60797829  0.77185123    -0.03400
C1334       C  0.41711485  0.57758535  0.77689992    -0.07800
C1335       C  0.39752600  0.52830225  0.77613647     0.05700
C1336       C  0.42463948  0.50920257  0.76988645    -0.02800
Br1337     Br  0.39939685  0.44205377  0.76794458    -0.02500
H1338       H  0.49158003  0.52354188  0.76043315     0.09600
H1339       H  0.39644565  0.59236525  0.78196839     0.07700
Br1340     Br  0.48783452  0.67486393  0.77363749    -0.02900
C1341       C  0.87045687  0.80222861  0.87819063    -0.09600
C1342       C  0.82162430  0.77146162  0.87985599     0.06600
C1343       C  0.80487802  0.72552576  0.88614919    -0.03400
C1344       C  0.83676447  0.71075997  0.89055228    -0.07800
C1345       C  0.88578466  0.74122795  0.88888329     0.05700
C1346       C  0.90263153  0.78756895  0.88273898    -0.02800
Br1347     Br  0.96852636  0.83076443  0.87904072    -0.02500
H1348       H  0.88345614  0.83713579  0.87281189     0.09600
H1349       H  0.82303346  0.67523553  0.89545155     0.07700
Br1350     Br  0.73855794  0.68134639  0.88847327    -0.02900
C1351       C  0.73034205  0.76728204  0.80007272    -0.09600
C1352       C  0.70238312  0.71780907  0.79815251     0.06600
C1353       C  0.68514842  0.68939460  0.81287185    -0.03400
C1354       C  0.69616155  0.71064361  0.82895271    -0.07800
C1355       C  0.72403089  0.75994784  0.83077777     0.05700
C1356       C  0.74112793  0.78836860  0.81618796    -0.02800
Br1357     Br  0.78124030  0.85575652  0.81769754    -0.02500
H1358       H  0.74357180  0.78982683  0.78897196     0.09600
H1359       H  0.68408371  0.68843753  0.84017142     0.07700
Br1360     Br  0.64948408  0.62141147  0.81209214    -0.02900
C1361       C  0.47800002  0.92872647  0.76055788    -0.09600
C1362       C  0.47827730  0.92111771  0.77811205     0.06600
C1363       C  0.44455789  0.92445466  0.78848286    -0.03400
C1364       C  0.41588856  0.94083591  0.78157287    -0.07800
C1365       C  0.41795372  0.95110659  0.76423272     0.05700
C1366       C  0.44742682  0.94241770  0.75355619    -0.02800
Br1367     Br  0.44843194  0.94984112  0.72935871    -0.02500
H1368       H  0.50272179  0.92556829  0.75225832     0.09600
H1369       H  0.39183966  0.94544015  0.78974240     0.07700
Br1370     Br  0.43384145  0.90464979  0.81184912    -0.02900
C1371       C  0.59034892  0.81688644  0.78412688    -0.09600
C1372       C  0.58459827  0.85013479  0.77466604     0.06600
C1373       C  0.59571884  0.85497190  0.75712018    -0.03400
C1374       C  0.61102846  0.82611877  0.74940991    -0.07800
C1375       C  0.61725311  0.79340941  0.75897719     0.05700
C1376       C  0.60677074  0.78902878  0.77652732    -0.02800
Br1377     Br  0.61145340  0.74367451  0.79066971    -0.02500
H1378       H  0.58168802  0.81227234  0.79754611     0.09600
H1379       H  0.61946971  0.83024825  0.73597563     0.07700
Br1380     Br  0.59468831  0.90293451  0.74331343    -0.02900
C1381       C  0.71787792  0.84751050  0.61338416    -0.09600
C1382       C  0.76660848  0.86649021  0.61509493     0.06600
C1383       C  0.79723650  0.91393905  0.61045396    -0.03400
C1384       C  0.77853038  0.94157063  0.60429697    -0.07800
C1385       C  0.72936137  0.92262511  0.60275039     0.05700
C1386       C  0.69894290  0.87452890  0.60738122    -0.02800
Br1387     Br  0.63104240  0.84089532  0.60550694    -0.02500
H1388       H  0.69407142  0.81088142  0.61683268     0.09600
H1389       H  0.80257153  0.97801727  0.60075873     0.07700
Br1390     Br  0.86433159  0.94293139  0.61299433    -0.02900
C1391       C  0.69819842  0.72593446  0.66199304    -0.09600
C1392       C  0.74683117  0.75833179  0.66159748     0.06600
C1393       C  0.77072074  0.77804663  0.67692393    -0.03400
C1394       C  0.74579381  0.76634874  0.69228527    -0.07800
C1395       C  0.69668950  0.73492319  0.69278559     0.05700
C1396       C  0.67303114  0.71378994  0.67735150    -0.02800
Br1397     Br  0.60617545  0.67065176  0.67589927    -0.02500
H1398       H  0.67934286  0.71155671  0.65017373     0.09600
H1399       H  0.76505757  0.78226034  0.70390108     0.07700
Br1400     Br  0.83705623  0.82318757  0.67729266    -0.02900
C1401       C  0.86453876  0.46690515  0.70901079    -0.09600
C1402       C  0.89122129  0.51596356  0.71182614     0.06600
C1403       C  0.93434542  0.53498053  0.72056654    -0.03400
C1404       C  0.95123241  0.50536855  0.72575161    -0.07800
C1405       C  0.92547130  0.45638084  0.72259236     0.05700
C1406       C  0.88102415  0.43686601  0.71455762    -0.02800
Br1407     Br  0.84309350  0.37034768  0.70989312    -0.02500
H1408       H  0.83155834  0.45219488  0.70207525     0.09600
H1409       H  0.98475314  0.52080315  0.73238342     0.07700
Br1410     Br  0.97214478  0.60159872  0.72518927    -0.02900
C1411       C  0.82002781  0.62423350  0.73116969    -0.09600
C1412       C  0.81586043  0.61760610  0.71337133     0.06600
C1413       C  0.78305951  0.62633748  0.70467334    -0.03400
C1414       C  0.75697929  0.64253118  0.71363088    -0.07800
C1415       C  0.76070899  0.64824768  0.73132826     0.05700
C1416       C  0.79220892  0.63852726  0.74017433    -0.02800
Br1417     Br  0.79971302  0.64597162  0.76436960    -0.02500
H1418       H  0.84509991  0.61829442  0.73817488     0.09600
H1419       H  0.73203738  0.64902292  0.70675334     0.07700
Br1420     Br  0.76781345  0.61263843  0.68097096    -0.02900
C1421       C  0.84434237  0.16844634  0.89290641    -0.09600
C1422       C  0.82285672  0.11930178  0.89020743     0.06600
C1423       C  0.84852162  0.10106639  0.88185907    -0.03400
C1424       C  0.89469543  0.13219859  0.87625548    -0.07800
C1425       C  0.91547176  0.18125818  0.87884944     0.05700
C1426       C  0.89003604  0.19926583  0.88729535    -0.02800
Br1427     Br  0.91537438  0.26606322  0.89051875    -0.02500
H1428       H  0.82514398  0.18324068  0.89918218     0.09600
H1429       H  0.91366183  0.11838401  0.86920616     0.07700
Br1430     Br  0.82059535  0.03536445  0.87603660    -0.02900
C1431       C  0.80915324  0.19955421  0.93494616    -0.09600
C1432       C  0.76004581  0.18111703  0.93535917     0.06600
C1433       C  0.74254703  0.21043124  0.94115203    -0.03400
C1434       C  0.77422939  0.25724282  0.94621417    -0.07800
C1435       C  0.82320442  0.27524951  0.94558000     0.05700
C1436       C  0.84046768  0.24601963  0.93978275    -0.02800
Br1437     Br  0.90675190  0.26821389  0.93780010    -0.02500
H1438       H  0.82360336  0.17801501  0.93046662     0.09600
H1439       H  0.76066583  0.27916749  0.95109998     0.07700
Br1440     Br  0.67637478  0.18744178  0.94387613    -0.02900
C1441       C  0.66031129  0.86758312  0.89136064    -0.09600
C1442       C  0.69315977  0.90747435  0.90067401     0.06600
C1443       C  0.73992800  0.91596528  0.90204414    -0.03400
C1444       C  0.75344054  0.88729544  0.89319231    -0.07800
C1445       C  0.72103999  0.84831744  0.88341621     0.05700
C1446       C  0.67339180  0.83754427  0.88317599    -0.02800
Br1447     Br  0.62359727  0.78062357  0.87312921    -0.02500
H1448       H  0.62388718  0.85927166  0.89059609     0.09600
H1449       H  0.79005300  0.89617643  0.89378626     0.07700
Br1450     Br  0.78818933  0.96672227  0.91526136    -0.02900
C1451       C  0.63566094  0.01732101  0.84361920    -0.09600
C1452       C  0.61543611  0.98713842  0.85769056     0.06600
C1453       C  0.58465638  0.93812652  0.85473559    -0.03400
C1454       C  0.57425229  0.92082500  0.83810821    -0.07800
C1455       C  0.59336159  0.95123597  0.82419211     0.05700
C1456       C  0.62437019  0.99979930  0.82697505    -0.02800
Br1457     Br  0.65148243  0.04325996  0.80839975    -0.02500
H1458       H  0.65948179  0.05484055  0.84553745     0.09600
H1459       H  0.54997672  0.88345880  0.83599557     0.07700
Br1460     Br  0.55584847  0.89198459  0.87252624    -0.02900
C1461       C  0.35384467  0.20240236  0.93578188    -0.09600
C1462       C  0.38482212  0.25135806  0.93382303     0.06600
C1463       C  0.43333367  0.27007734  0.93753372    -0.03400
C1464       C  0.44951201  0.23969612  0.94292337    -0.07800
C1465       C  0.41817017  0.19096024  0.94465314     0.05700
C1466       C  0.37009358  0.17239995  0.94103641    -0.02800
Br1467     Br  0.32523894  0.10595244  0.94295334    -0.02500
H1468       H  0.31661893  0.18684378  0.93286431     0.09600
H1469       H  0.48646612  0.25423550  0.94611892     0.07700
Br1470     Br  0.47887036  0.33647144  0.93636430    -0.02900
C1471       C  0.51045684  0.02838550  0.93001402    -0.09600
C1472       C  0.55043459  0.06062492  0.92070336     0.06600
C1473       C  0.55984817  0.10782788  0.91911892    -0.03400
C1474       C  0.53286085  0.12270532  0.92831601    -0.07800
C1475       C  0.49450527  0.09099779  0.93843103     0.05700
C1476       C  0.48184001  0.04271119  0.93835282    -0.02800
Br1477     Br  0.42413571  0.99382075  0.94817936    -0.02500
H1478       H  0.50111311  0.99154013  0.93074660     0.09600
H1479       H  0.54257055  0.15966492  0.92775465     0.07700
Br1480     Br  0.60915848  0.15453971  0.90500692    -0.02900
C1481       C  0.54169731  0.80132701  0.03544270    -0.09600
C1482       C  0.55909566  0.84630427  0.04293851     0.06600
C1483       C  0.59375477  0.86103578  0.05570010    -0.03400
C1484       C  0.61149729  0.83173512  0.06033229    -0.07800
C1485       C  0.59476878  0.78722445  0.05273295     0.05700
C1486       C  0.55881807  0.77140623  0.04045109    -0.02800
Br1487     Br  0.53450148  0.71092981  0.02958998    -0.02500
H1488       H  0.51535711  0.78989254  0.02546034     0.09600
H1489       H  0.63902014  0.84402979  0.06990373     0.07700
Br1490     Br  0.62065758  0.92214418  0.06634987    -0.02900
C1491       C  0.61234091  0.98910218  0.99418141    -0.09600
C1492       C  0.56780007  0.94842890  0.99552708     0.06600
C1493       C  0.54643767  0.92120658  0.98092821    -0.03400
C1494       C  0.57029777  0.93401376  0.96536068    -0.07800
C1495       C  0.61597982  0.97384886  0.96394838     0.05700
C1496       C  0.63654601  0.00219369  0.97864955    -0.02800
Br1497     Br  0.69789661  0.05825695  0.97903408    -0.02500
H1498       H  0.62931004  0.00969894  0.00548845     0.09600
H1499       H  0.55301708  0.91212922  0.95434883     0.07700
Br1500     Br  0.48517650  0.86542521  0.98186617    -0.02900
C1501       C  0.92299591  0.19502528  0.36973469    -0.09600
C1502       C  0.92200652  0.20212722  0.38724378     0.06600
C1503       C  0.89525817  0.16294938  0.39786865    -0.03400
C1504       C  0.86585110  0.11847007  0.39075192    -0.07800
C1505       C  0.86457136  0.11122223  0.37308975     0.05700
C1506       C  0.89600086  0.14967333  0.36266912    -0.02800
Br1507     Br  0.90642918  0.14231347  0.33908784    -0.02500
H1508       H  0.94513980  0.22473108  0.36157890     0.09600
H1509       H  0.84284581  0.08982737  0.39913376     0.07700
Br1510     Br  0.89643334  0.16810641  0.42219305    -0.02900
C1511       C  0.82171274  0.21854907  0.42399099    -0.09600
C1512       C  0.84858704  0.26299247  0.43167666     0.06600
C1513       C  0.82900087  0.27642502  0.44498050    -0.03400
C1514       C  0.78331853  0.24437136  0.45077682    -0.07800
C1515       C  0.75701052  0.19917714  0.44334730     0.05700
C1516       C  0.77664881  0.18641418  0.42985077    -0.02800
Br1517     Br  0.74561234  0.12401242  0.42013344    -0.02500
H1518       H  0.83645210  0.20828264  0.41353814     0.09600
H1519       H  0.76873981  0.25418101  0.46136824     0.07700
Br1520     Br  0.86442517  0.33663250  0.45608625    -0.02900
C1521       C  0.04852494  0.51603917  0.27411676    -0.09600
C1522       C  0.09724840  0.53463437  0.27552718     0.06600
C1523       C  0.12781370  0.58291347  0.27197091    -0.03400
C1524       C  0.10912462  0.61178133  0.26722942    -0.07800
C1525       C  0.05996602  0.59335682  0.26614192     0.05700
C1526       C  0.02957868  0.54432871  0.26952719    -0.02800
Br1527     Br  0.96171229  0.51136471  0.26769654    -0.02500
H1528       H  0.02476707  0.47888273  0.27690130     0.09600
H1529       H  0.13318189  0.64888678  0.26454301     0.07700
Br1530     Br  0.19489350  0.61124695  0.27429373    -0.02900
C1531       C  0.04046154  0.40643662  0.32557574    -0.09600
C1532       C  0.08948508  0.43555798  0.32380847     0.06600
C1533       C  0.11758695  0.45263699  0.33850127    -0.03400
C1534       C  0.09654523  0.44024413  0.35462527    -0.07800
C1535       C  0.04731951  0.41111325  0.35647756     0.05700
C1536       C  0.01921395  0.39418456  0.34164386    -0.02800
Br1537     Br  0.95144409  0.35771930  0.34223650    -0.02500
H1538       H  0.01837212  0.39450793  0.31432491     0.09600
H1539       H  0.11886845  0.45364832  0.36577891     0.07700
Br1540     Br  0.18436599  0.49533184  0.33711007    -0.02900
C1541       C  0.23888062  0.15338011  0.37181168    -0.09600
C1542       C  0.25577665  0.19775384  0.37968874     0.06600
C1543       C  0.28922993  0.21131817  0.39284289    -0.03400
C1544       C  0.30656610  0.18149517  0.39745415    -0.07800
C1545       C  0.29047576  0.13765152  0.38935520     0.05700
C1546       C  0.25544698  0.12299389  0.37675640    -0.02800
Br1547     Br  0.23118698  0.06305820  0.36549081    -0.02500
H1548       H  0.21339677  0.14279402  0.36158503     0.09600
H1549       H  0.33263767  0.19250569  0.40748284     0.07700
Br1550     Br  0.31407755  0.27118687  0.40426869    -0.02900
C1551       C  0.19549444  0.34578122  0.38695840    -0.09600
C1552       C  0.17783858  0.29708774  0.38435631     0.06600
C1553       C  0.13235798  0.26458619  0.39054512    -0.03400
C1554       C  0.10566757  0.28099371  0.39906299    -0.07800
C1555       C  0.12278216  0.32965464  0.40122728     0.05700
C1556       C  0.16840929  0.36219427  0.39523434    -0.02800
Br1557     Br  0.19590327  0.42929602  0.39840891    -0.02500
H1558       H  0.23044721  0.37119356  0.38244082     0.09600
H1559       H  0.07026467  0.25562039  0.40320063     0.07700
Br1560     Br  0.10267559  0.19775408  0.38621950    -0.02900
C1561       C  0.43464403  0.55844164  0.26623001    -0.09600
C1562       C  0.44582564  0.52233148  0.26790713     0.06600
C1563       C  0.49006853  0.53319560  0.27452217    -0.03400
C1564       C  0.52213116  0.57947955  0.27944321    -0.07800
C1565       C  0.51106002  0.61575190  0.27797657     0.05700
C1566       C  0.46658304  0.60484769  0.27139797    -0.02800
Br1567     Br  0.44661389  0.65095779  0.26989627    -0.02500
H1568       H  0.40097076  0.55047436  0.26083338     0.09600
H1569       H  0.55632116  0.58736253  0.28428585     0.07700
Br1570     Br  0.51039357  0.48728981  0.27569662    -0.02900
C1571       C  0.55420003  0.53187061  0.20238656    -0.09600
C1572       C  0.59033832  0.52143724  0.20574858     0.06600
C1573       C  0.57851388  0.47911617  0.21453013    -0.03400
C1574       C  0.53192808  0.44936172  0.21997758    -0.07800
C1575       C  0.49622228  0.46010108  0.21646404     0.05700
C1576       C  0.50768215  0.50160546  0.20740264    -0.02800
Br1577     Br  0.46259708  0.52161224  0.20291679    -0.02500
H1578       H  0.56228166  0.56453005  0.19604808     0.09600
H1579       H  0.52354163  0.41776484  0.22715102     0.07700
Br1580     Br  0.62305411  0.45853567  0.21900235    -0.02900
C1581       C  0.22118614  0.44546397  0.27812814    -0.09600
C1582       C  0.17866877  0.43771828  0.27099262     0.06600
C1583       C  0.16464099  0.41436127  0.25506970    -0.03400
C1584       C  0.19330621  0.39972556  0.24662702    -0.07800
C1585       C  0.23651624  0.40877085  0.25366514     0.05700
C1586       C  0.24999113  0.43164630  0.26965157    -0.02800
Br1587     Br  0.30687301  0.44367284  0.28096323    -0.02500
H1588       H  0.23240132  0.46295490  0.29036693     0.09600
H1589       H  0.18225726  0.38210163  0.23441549     0.07700
Br1590     Br  0.10601592  0.40020002  0.24463199    -0.02900
C1591       C  0.23680308  0.29673705  0.31926629    -0.09600
C1592       C  0.26911646  0.30244827  0.33198182     0.06600
C1593       C  0.31695076  0.32077427  0.32757400    -0.03400
C1594       C  0.33109315  0.33053305  0.31056048    -0.07800
C1595       C  0.29845408  0.32284546  0.29757751     0.05700
C1596       C  0.25071463  0.30671368  0.30224120    -0.02800
Br1597     Br  0.20124474  0.29544648  0.28643483    -0.02500
H1598       H  0.19994688  0.28270251  0.32252976     0.09600
H1599       H  0.36798909  0.34415529  0.30751141     0.07700
Br1600     Br  0.36469097  0.33438321  0.34437662    -0.02900
C1601       C  0.17690210  0.82496426  0.06541218    -0.09600
C1602       C  0.21472516  0.85619339  0.05497195     0.06600
C1603       C  0.21969349  0.84067268  0.03881065    -0.03400
C1604       C  0.18773219  0.79419525  0.03360486    -0.07800
C1605       C  0.15013933  0.76286140  0.04417089     0.05700
C1606       C  0.14453864  0.77907047  0.06012699    -0.02800
Br1607     Br  0.09151105  0.74189889  0.07473067    -0.02500
H1608       H  0.17175438  0.83674149  0.07771357     0.09600
H1609       H  0.19231255  0.78237585  0.02123587     0.07700
Br1610     Br  0.27028970  0.88051075  0.02375780    -0.02900
C1611       C  0.10766565  0.85336913  0.11851660    -0.09600
C1612       C  0.07247848  0.86493577  0.11489890     0.06600
C1613       C  0.08526301  0.90730594  0.10605564    -0.03400
C1614       C  0.13193629  0.93600582  0.10060011    -0.07800
C1615       C  0.16680859  0.92431615  0.10436501     0.05700
C1616       C  0.15445642  0.88285416  0.11363422    -0.02800
Br1617     Br  0.19891911  0.86252653  0.11892014    -0.02500
H1618       H  0.09864780  0.82079451  0.12513874     0.09600
H1619       H  0.14112140  0.96769595  0.09334816     0.07700
Br1620     Br  0.04181801  0.92946709  0.10184934    -0.02900
C1621       C  0.44528651  0.91296789  0.05904664    -0.09600
C1622       C  0.48454794  0.94763143  0.05009645     0.06600
C1623       C  0.49637348  0.99553195  0.05195320    -0.03400
C1624       C  0.46774937  0.00717040  0.06188618    -0.07800
C1625       C  0.42752653  0.97203538  0.07041169     0.05700
C1626       C  0.41750057  0.92449805  0.06924699    -0.02800
Br1627     Br  0.36708315  0.87267815  0.08140262    -0.02500
H1628       H  0.43562491  0.87606222  0.05799342     0.09600
H1629       H  0.47648886  0.04386520  0.06261041     0.07700
Br1630     Br  0.55211947  0.04689225  0.04201052    -0.02900
C1631       C  0.34911827  0.04059131  0.01134523    -0.09600
C1632       C  0.37377391  0.06793489  0.02554516     0.06600
C1633       C  0.41881714  0.10842197  0.02317802    -0.03400
C1634       C  0.43824863  0.12066478  0.00687351    -0.07800
C1635       C  0.41365454  0.09322002  0.99276079     0.05700
C1636       C  0.36875304  0.05297045  0.99503754    -0.02800
Br1637     Br  0.33232659  0.01512885  0.97612477    -0.02500
H1638       H  0.31466601  0.00944744  0.01294255     0.09600
H1639       H  0.47201057  0.15259933  0.00511207     0.07700
Br1640     Br  0.45387511  0.15080998  0.04142371    -0.02900
C1641       C  0.54943506  0.08568811  0.20681795    -0.09600
C1642       C  0.55360310  0.07946820  0.22416046     0.06600
C1643       C  0.52634767  0.08839999  0.23588201    -0.03400
C1644       C  0.49258697  0.09935325  0.23005599    -0.07800
C1645       C  0.48691575  0.10411487  0.21260404     0.05700
C1646       C  0.51786256  0.09968739  0.20099615    -0.02800
Br1647     Br  0.52214485  0.11574992  0.17728243    -0.02500
H1648       H  0.57143607  0.08038747  0.19778601     0.09600
H1649       H  0.47004110  0.10316906  0.23925579     0.07700
Br1650     Br  0.53256411  0.08463874  0.25999791    -0.02900
C1651       C  0.40017278  0.11909551  0.15431750    -0.09600
C1652       C  0.37598278  0.08606163  0.16719313     0.06600
C1653       C  0.34554814  0.03834597  0.16277981    -0.03400
C1654       C  0.34018167  0.02430355  0.14568129    -0.07800
C1655       C  0.36502426  0.05723921  0.13272357     0.05700
C1656       C  0.39523380  0.10526000  0.13724942    -0.02800
Br1657     Br  0.43411620  0.15324001  0.12109070    -0.02500
H1658       H  0.42497603  0.15559327  0.15766429     0.09600
H1659       H  0.31627609  0.98746715  0.14250625     0.07700
Br1660     Br  0.31082600  0.99142853  0.17975075    -0.02900
C1661       C  0.40195696  0.22869496  0.21004968    -0.09600
C1662       C  0.39118946  0.18620596  0.21811627     0.06600
C1663       C  0.37013043  0.17675834  0.23441025    -0.03400
C1664       C  0.36016809  0.20962941  0.24227640    -0.07800
C1665       C  0.37194648  0.25261460  0.23428139     0.05700
C1666       C  0.39298210  0.26182059  0.21798365    -0.02800
Br1667     Br  0.40887471  0.31851657  0.20557823    -0.02500
H1668       H  0.41793204  0.23638341  0.19752620     0.09600
H1669       H  0.34411658  0.20203711  0.25477974     0.07700
Br1670     Br  0.35334527  0.11899346  0.24618320    -0.02900
C1671       C  0.18122805  0.32007286  0.11434252    -0.09600
C1672       C  0.17020318  0.27288360  0.11201361     0.06600
C1673       C  0.12490201  0.23947996  0.10595257    -0.03400
C1674       C  0.09235915  0.25407724  0.10194662    -0.07800
C1675       C  0.10351586  0.30123438  0.10445858     0.05700
C1676       C  0.14839960  0.33427601  0.11079818    -0.02800
Br1677     Br  0.16844996  0.40020656  0.11355067    -0.02500
H1678       H  0.21588777  0.34625640  0.11892295     0.09600
H1679       H  0.05831139  0.22861680  0.09670701     0.07700
Br1680     Br  0.10470865  0.17340862  0.10366859    -0.02900
C1681       C  0.23141427  0.15388004  0.09363194    -0.09600
C1682       C  0.26724435  0.19320927  0.10227886     0.06600
C1683       C  0.31421635  0.20252523  0.10061059    -0.03400
C1684       C  0.32367690  0.17079250  0.09170561    -0.07800
C1685       C  0.28735109  0.12990703  0.08386032     0.05700
C1686       C  0.24093470  0.12296596  0.08430842    -0.02800
Br1687     Br  0.18829773  0.07276151  0.07236505    -0.02500
H1688       H  0.19524563  0.14639700  0.09438806     0.09600
H1689       H  0.35969785  0.17773715  0.09127871     0.07700
Br1690     Br  0.36741597  0.25903263  0.10939592    -0.02900
C1691       C  0.30942103  0.32692326  0.15961489    -0.09600
C1692       C  0.27651933  0.27879064  0.15717960     0.06600
C1693       C  0.25480506  0.24994593  0.17137142    -0.01600
C1694       C  0.26461261  0.26980581  0.18767495    -0.07800
C1695       C  0.29590791  0.31860303  0.19018644     0.05700
C1696       C  0.31971482  0.34689029  0.17592943    -0.02800
Br1697     Br  0.36781955  0.41223692  0.17775408    -0.02500
H1698       H  0.32610725  0.34938636  0.14868964     0.09600
H1699       H  0.24664766  0.24706686  0.19840881     0.07700
Br1700     Br  0.20929265  0.18390707  0.16890372    -0.02900
C1701       C  0.12673661  0.88817960  0.58858392    -0.09600
C1702       C  0.09013751  0.85745138  0.59937009     0.06600
C1703       C  0.08293408  0.87416043  0.61485962    -0.03400
C1704       C  0.11422148  0.92098693  0.61977618    -0.07800
C1705       C  0.15301558  0.95119725  0.60943460     0.05700
C1706       C  0.15857396  0.93446729  0.59352683    -0.02800
Br1707     Br  0.21168812  0.97025870  0.57879582    -0.02500
H1708       H  0.13210063  0.87522243  0.57656973     0.09600
H1709       H  0.10921429  0.93339398  0.63195559     0.07700
Br1710     Br  0.03203327  0.83382253  0.62970023    -0.02900
C1711       C  0.17327138  0.79040362  0.54053114    -0.09600
C1712       C  0.16309906  0.79466610  0.55748112     0.06600
C1713       C  0.19997576  0.82554285  0.56840025    -0.03400
C1714       C  0.24528057  0.85477730  0.56190955    -0.07800
C1715       C  0.25533046  0.85228690  0.54472258     0.05700
C1716       C  0.21924179  0.81762740  0.53423717    -0.02800
Br1717     Br  0.23079388  0.80346288  0.51159651    -0.02500
H1718       H  0.14558411  0.76544950  0.53223038     0.09600
H1719       H  0.27232034  0.88042375  0.57025704     0.07700
Br1720     Br  0.19059419  0.83002054  0.59224124    -0.02900
C1721       C  0.90159359  0.73919730  0.60885770    -0.09600
C1722       C  0.89639584  0.73402519  0.59112147     0.06600
C1723       C  0.86725467  0.74813693  0.58289156    -0.03400
C1724       C  0.84156023  0.76391177  0.59255248    -0.07800
C1725       C  0.84604693  0.76835491  0.61043004     0.05700
C1726       C  0.87816174  0.75741150  0.61842050    -0.02800
Br1727     Br  0.89578757  0.77082836  0.64196141    -0.02500
H1728       H  0.92557299  0.73051944  0.61531250     0.09600
H1729       H  0.81764252  0.77238384  0.58598802     0.07700
Br1730     Br  0.86021387  0.74523322  0.55864188    -0.02900
C1731       C  0.96673872  0.67618469  0.64297299    -0.09600
C1732       C  0.95438340  0.64154705  0.63019618     0.06600
C1733       C  0.91806944  0.59463536  0.63366110    -0.03400
C1734       C  0.89713492  0.58323317  0.64974046    -0.07800
C1735       C  0.91081975  0.61747945  0.66261015     0.05700
C1736       C  0.94526236  0.66463250  0.65900438    -0.02800
Br1737     Br  0.96648438  0.71412390  0.67569828    -0.02500
H1738       H  0.99355404  0.71257991  0.64057032     0.09600
H1739       H  0.87032909  0.54692309  0.65235015     0.07700
Br1740     Br  0.89538283  0.54339952  0.61755373    -0.02900
C1741       C  0.79032419  0.57012939  0.44201710    -0.09600
C1742       C  0.83890624  0.60114481  0.44408874     0.06600
C1743       C  0.85813520  0.64945925  0.44043764    -0.03400
C1744       C  0.82872102  0.66642308  0.43524928    -0.07800
C1745       C  0.77974618  0.63595302  0.43340121     0.05700
C1746       C  0.76057073  0.58702404  0.43664142    -0.02800
Br1747     Br  0.69433907  0.54182677  0.43476332    -0.02500
H1748       H  0.77538020  0.53291953  0.44501269     0.09600
H1749       H  0.84468681  0.70379313  0.43233426     0.07700
Br1750     Br  0.92468194  0.69366449  0.44210463    -0.02900
C1751       C  0.90514064  0.58277304  0.50686180    -0.09600
C1752       C  0.93429961  0.60605126  0.49298124     0.06600
C1753       C  0.97458202  0.65076583  0.49537732    -0.03400
C1754       C  0.98422548  0.67234097  0.51141527    -0.07800
C1755       C  0.95412692  0.65000084  0.52535866     0.05700
C1756       C  0.91474664  0.60381795  0.52297473    -0.02800
Br1757     Br  0.87189245  0.56647785  0.54076208    -0.02500
H1758       H  0.87376709  0.54852830  0.50500761     0.09600
H1759       H  0.01505577  0.70714659  0.51286477     0.07700
Br1760     Br  0.01594257  0.68456789  0.47684850    -0.02900
C1761       C  0.98170882  0.53779647  0.43785330    -0.09600
C1762       C  0.93283760  0.51852556  0.43984602     0.06600
C1763       C  0.90192731  0.47470215  0.43201517    -0.03400
C1764       C  0.92019324  0.45114376  0.42249005    -0.07800
C1765       C  0.96914104  0.46985526  0.42085250     0.05700
C1766       C  0.00000015  0.51395522  0.42855525    -0.02800
Br1767     Br  0.06747454  0.54409642  0.42659232    -0.02500
H1768       H  0.00587766  0.57170935  0.44358356     0.09600
H1769       H  0.89596899  0.41673884  0.41711115     0.07700
Br1770     Br  0.83474455  0.44310810  0.43522976    -0.02900
C1771       C  0.21150351  0.46245055  0.53177350    -0.09600
C1772       C  0.18075384  0.46498914  0.54382742     0.06600
C1773       C  0.18479247  0.45470821  0.56101989    -0.03400
C1774       C  0.21728921  0.44069409  0.56549505    -0.07800
C1775       C  0.24448459  0.43433955  0.55315492     0.05700
C1776       C  0.24161710  0.44539446  0.53616980    -0.02800
Br1777     Br  0.27521119  0.43466539  0.51839133    -0.02500
H1778       H  0.21030809  0.47125764  0.51857962     0.09600
H1779       H  0.21897266  0.43142414  0.57860841     0.07700
Br1780     Br  0.14411083  0.45285782  0.57891365    -0.02900
C1781       C  0.07954087  0.57738437  0.54077642    -0.09600
C1782       C  0.07508783  0.53678220  0.54860757     0.06600
C1783       C  0.05530586  0.52486148  0.56509710    -0.03400
C1784       C  0.04121707  0.55381783  0.57350791    -0.07800
C1785       C  0.04527203  0.59407354  0.56554029     0.05700
C1786       C  0.06462778  0.60569269  0.54902083    -0.02800
Br1787     Br  0.07211701  0.66032354  0.53717541    -0.02500
H1788       H  0.09465258  0.58709177  0.52814688     0.09600
H1789       H  0.02525823  0.54379319  0.58599965     0.07700
Br1790     Br  0.04231803  0.46708544  0.57599237    -0.02900
C1791       C  0.10635150  0.46461028  0.48413370    -0.09600
C1792       C  0.07225359  0.44354815  0.49694166     0.06600
C1793       C  0.02900995  0.40292979  0.49310738    -0.03400
C1794       C  0.02042871  0.38406243  0.47660668    -0.07800
C1795       C  0.05487940  0.40455534  0.46369000     0.05700
C1796       C  0.09839938  0.44567056  0.46770241    -0.02800
Br1797     Br  0.15012381  0.47722567  0.45202618    -0.02500
H1798       H  0.14026498  0.49517015  0.48715286     0.09600
H1799       H  0.98681153  0.35270476  0.47399726     0.07700
Br1800     Br  0.98214324  0.37034104  0.51028836    -0.02900
loop_ 
_geom_bond_atom_site_label_1 
_geom_bond_atom_site_label_2 
_geom_bond_distance 
_geom_bond_site_symmetry_2 
_ccdc_geom_bond_type 
C1            C2   1.410       .  A
C1            C6   1.411       .  A
C1         C1782   1.488       .  S
C2            C3   1.409       .  A
C2            H7   1.082       .  S
C3            C4   1.403       .  A
C3         C1772   1.494       .  S
C4            C5   1.394       .  A
C4            H8   1.084       .  S
C5            C6   1.404       .  A
C5         C1792   1.478       .  S
C6            H9   1.083       .  S
C10          C11   1.413       .  A
C10          C15   1.408       .  A
C10        C1762   1.486       .  S
C11          C12   1.405       .  A
C11          H16   1.083       .  S
C12          C13   1.394       .  A
C12        C1752   1.474       .  S
C13          C14   1.395       .  A
C13          H17   1.085       .  S
C14          C15   1.401       .  A
C14        C1742   1.469       .  S
C15          H18   1.084       .  S
O19         Cr37   1.997       .  S
O19          C27   1.258       .  A
O20         Cr37   1.969       .  S
O20          C21   1.262       .  A
C21        C1722   1.485       .  S
C21          O22   1.275       .  A
O22         Cr38   2.033   1_655  S
O23         Cr38   1.965       .  S
O23          C24   1.255       .  A
C24        C1702   1.460       .  S
C24          O25   1.266       .  A
O25         Cr39   2.005       .  S
O26         Cr39   1.983       .  S
O26          C27   1.256   1_455  A
C27        C1732   1.488       .  S
O28         Cr37   1.970       .  S
O28          C36   1.262   1_655  A
O29         Cr37   1.995       .  S
O29          C30   1.258       .  A
C30        C1755   1.491       .  S
C30          O31   1.259   1_655  A
O31         Cr38   1.992       .  S
O32         Cr38   2.018       .  S
O32          C33   1.269       .  A
C33        C1712   1.469       .  S
C33          O34   1.258       .  A
O34         Cr39   1.965       .  S
O35         Cr39   2.037       .  S
O35          C36   1.277       .  A
C36        C1785   1.479       .  S
Cr37         O40   1.771   1_655  S
Cr38         O40   1.767       .  S
Cr39         O40   1.765       .  S
C41          C42   1.414       .  A
C41          C46   1.415       .  A
C41        C1682   1.499       .  S
C42          C43   1.404       .  A
C42          H47   1.083       .  S
C43          C44   1.392       .  A
C43        C1692   1.473       .  S
C44          C45   1.396       .  A
C44          H48   1.086       .  S
C45          C46   1.408       .  A
C45        C1672   1.484       .  S
C46          H49   1.083       .  S
C50          C51   1.409       .  A
C50          C55   1.409       .  A
C50        C1662   1.489       .  S
C51          C52   1.404       .  A
C51          H56   1.084       .  S
C52          C53   1.396       .  A
C52        C1652   1.478       .  S
C53          C54   1.401       .  A
C53          H57   1.083       .  S
C54          C55   1.412       .  A
C54        C1645   1.493       .  S
C55          H58   1.083       .  S
O59         Cr77   2.020       .  S
O59          C67   1.269       .  A
O60         Cr77   1.970       .  S
O60          C61   1.252       .  A
C61        C1655   1.486       .  S
C61          O62   1.263   1_545  A
O62         Cr78   2.011       .  S
O63         Cr78   1.976       .  S
O63          C64   1.264       .  A
C64        C1615   1.468       .  S
C64          O65   1.267       .  A
O65         Cr79   2.002       .  S
O66         Cr79   1.968   1_545  S
O66          C67   1.257       .  A
C67        C1685   1.497       .  S
O68         Cr77   1.957       .  S
O68          C76   1.253       .  A
O69         Cr77   2.031       .  S
O69          C70   1.274   1_545  A
C70        C1625   1.496       .  S
C70          O71   1.257       .  A
O71         Cr78   1.960       .  S
O72         Cr78   1.987       .  S
O72          C73   1.261       .  A
C73        C1602   1.479       .  S
C73          O74   1.264       .  A
O74         Cr79   1.997       .  S
O75         Cr79   2.017   1_545  S
O75          C76   1.267       .  A
C76        C1632   1.478       .  S
Cr77         O80   1.777       .  S
Cr78         O80   1.773   1_565  S
Cr79         O80   1.774   1_565  S
O81         Cr99   1.958       .  S
O81          C89   1.251       .  A
O82         Cr99   2.032       .  S
O82          C83   1.270       .  A
C83        C1585   1.490       .  S
C83          O84   1.257       .  A
O84        Cr100   1.974       .  S
O85        Cr100   1.995       .  S
O85          C86   1.263       .  A
C86        C1562   1.466       .  S
C86          O87   1.264       .  A
O87        Cr101   1.978       .  S
O88        Cr101   2.023       .  S
O88          C89   1.269       .  A
C89        C1595   1.492       .  S
O90         Cr99   2.031       .  S
O90          C98   1.270       .  A
O91         Cr99   1.959       .  S
O91          C92   1.254       .  A
C92        C1695   1.486       .  S
C92          O93   1.268       .  A
O93        Cr100   2.019       .  S
O94        Cr100   1.982       .  S
O94          C95   1.263       .  A
C95        C1575   1.472       .  S
C95          O96   1.263       .  A
O96        Cr101   1.995       .  S
O97        Cr101   1.968       .  S
O97          C98   1.256       .  A
C98        C1665   1.485       .  S
Cr99        O102   1.778       .  S
Cr100       O102   1.774       .  S
Cr101       O102   1.774       .  S
C103        C104   1.410       .  A
C103        C108   1.409       .  A
C103       C1552   1.489       .  S
C104        C105   1.407       .  A
C104        H109   1.085       .  S
C105        C106   1.399       .  A
C105       C1592   1.482       .  S
C106        C107   1.397       .  A
C106        H110   1.085       .  S
C107        C108   1.405       .  A
C107       C1542   1.477       .  S
C108        H111   1.083       .  S
C112        C113   1.413       .  A
C112        C117   1.415       .  A
C112       C1582   1.495       .  S
C113        C114   1.408       .  A
C113        H118   1.084       .  S
C114        C115   1.398       .  A
C114       C1522   1.480       .  S
C115        C116   1.394       .  A
C115        H119   1.085       .  S
C116        C117   1.407       .  A
C116       C1532   1.481       .  S
C117        H120   1.084       .  S
O121       Cr139   1.964       .  S
O121        C129   1.258   1_455  A
O122       Cr139   2.007       .  S
O122        C123   1.263       .  A
C123       C1795   1.493       .  S
C123        O124   1.259       .  A
O124       Cr140   1.980   1_455  S
O125       Cr140   2.002       .  S
O125        C126   1.264       .  A
C126       C1512   1.466       .  S
C126        O127   1.257       .  A
O127       Cr141   1.978       .  S
O128       Cr141   2.022       .  S
O128        C129   1.272       .  A
C129       C1765   1.483       .  S
O130       Cr139   2.010       .  S
O130        C138   1.265       .  A
O131       Cr139   1.969       .  S
O131        C132   1.260       .  A
C132       C1555   1.481       .  S
C132        O133   1.271       .  A
O133       Cr140   2.020   1_455  S
O134       Cr140   1.969       .  S
O134        C135   1.259       .  A
C135       C1502   1.468       .  S
C135        O136   1.269       .  A
O136       Cr141   2.017       .  S
O137       Cr141   1.980       .  S
O137        C138   1.258   1_655  A
C138       C1535   1.488       .  S
Cr139       O142   1.773   1_455  S
Cr140       O142   1.769       .  S
Cr141       O142   1.769       .  S
C143        C144   1.414       .  A
C143        C148   1.412       .  A
C143       C1622   1.498       .  S
C144        C145   1.408       .  A
C144        H149   1.082       .  S
C145        C146   1.397       .  A
C145       C1492   1.475   1_554  S
C146        C147   1.394       .  A
C146        H150   1.085       .  S
C147        C148   1.403       .  A
C147       C1482   1.477       .  S
C148        H151   1.084       .  S
C152        C153   1.413       .  A
C152        C157   1.411       .  A
C152       C1475   1.494       .  S
C153        C154   1.403       .  A
C153        H158   1.082       .  S
C154        C155   1.393       .  A
C154       C1635   1.472       .  S
C155        C156   1.395       .  A
C155        H159   1.085       .  S
C156        C157   1.403       .  A
C156       C1465   1.469       .  S
C157        H160   1.083       .  S
O161       Cr179   1.999       .  S
O161        C169   1.262   1_565  A
O162       Cr179   1.985       .  S
O162        C163   1.263       .  A
C163       C1442   1.495       .  S
C163        O164   1.268       .  A
O164       Cr180   2.018   1_565  S
O165       Cr180   1.990       .  S
O165        C166   1.263       .  A
C166       C1422   1.476       .  S
C166        O167   1.264       .  A
O167       Cr181   1.992       .  S
O168       Cr181   1.985       .  S
O168        C169   1.261       .  A
C169       C1452   1.484   1_545  S
O170       Cr179   1.980   1_545  S
O170        C178   1.262       .  A
O171       Cr179   2.002       .  S
O171        C172   1.264       .  A
C172       C1495   1.493       .  S
C172        O173   1.257   1_565  A
O173       Cr180   1.981       .  S
O174       Cr180   1.997       .  S
O174        C175   1.266       .  A
C175       C1432   1.482       .  S
C175        O176   1.263       .  A
O176       Cr181   1.990       .  S
O177       Cr181   2.012       .  S
O177        C178   1.266       .  A
C178       C1472   1.489       .  S
Cr179       O182   1.772   1_565  S
Cr180       O182   1.768       .  S
Cr181       O182   1.769       .  S
C183        C184   1.412       .  A
C183        C188   1.413       .  A
C183       C1412   1.496       .  S
C184        C185   1.401       .  A
C184        H189   1.083       .  S
C185        C186   1.395       .  A
C185       C1402   1.471       .  S
C186        C187   1.398       .  A
C186        H190   1.084       .  S
C187        C188   1.405       .  A
C187       C1735   1.481       .  S
C188        H191   1.082       .  S
C192        C193   1.417       .  A
C192        C197   1.414       .  A
C192       C1725   1.502       .  S
C193        C194   1.405       .  A
C193        H198   1.083       .  S
C194        C195   1.392       .  A
C194       C1392   1.478       .  S
C195        C196   1.397       .  A
C195        H199   1.086       .  S
C196        C197   1.405       .  A
C196       C1382   1.479       .  S
C197        H200   1.082       .  S
C201        C202   1.408       .  A
C201        C206   1.410       .  A
C201       C1372   1.492       .  S
C202        C203   1.401       .  A
C202        H207   1.084       .  S
C203        C204   1.396       .  A
C203       C1455   1.473       .  S
C204        C205   1.402       .  A
C204        H208   1.084       .  S
C205        C206   1.411       .  A
C205       C1362   1.491       .  S
C206        H209   1.083       .  S
C210        C211   1.414       .  A
C210        C215   1.415       .  A
C210       C1445   1.500       .  S
C211        C212   1.404       .  A
C211        H216   1.083       .  S
C212        C213   1.392       .  A
C212       C1342   1.472       .  S
C213        C214   1.394       .  A
C213        H217   1.085       .  S
C214        C215   1.407       .  A
C214       C1355   1.476       .  S
C215        H218   1.082       .  S
O219       Cr237   1.965       .  S
O219        C227   1.259       .  A
O220       Cr237   2.008       .  S
O220        C221   1.266       .  A
C221       C1395   1.490       .  S
C221        O222   1.256       .  A
O222       Cr238   1.978       .  S
O223       Cr238   1.998       .  S
O223        C224   1.263       .  A
C224       C1322   1.487       .  S
C224        O225   1.262       .  A
O225       Cr239   1.980       .  S
O226       Cr239   2.025       .  S
O226        C227   1.271       .  A
C227       C1415   1.475       .  S
O228       Cr237   2.003       .  S
O228        C236   1.263       .  A
O229       Cr237   1.977       .  S
O229        C230   1.260       .  A
C230       C1375   1.481       .  S
C230        O231   1.270       .  A
O231       Cr238   2.022       .  S
O232       Cr238   1.974       .  S
O232        C233   1.260       .  A
C233       C1332   1.478       .  S
C233        O234   1.269       .  A
O234       Cr239   2.005       .  S
O235       Cr239   1.978       .  S
O235        C236   1.258       .  A
C236       C1352   1.483       .  S
Cr237       O240   1.769       .  S
Cr238       O240   1.767       .  S
Cr239       O240   1.766       .  S
C241        C242   1.415       .  A
C241        C246   1.409       .  A
C241       C1302   1.491       .  S
C242        C243   1.408       .  A
C242        H247   1.083       .  S
C243        C244   1.394       .  A
C243       C1312   1.480       .  S
C244        C245   1.394       .  A
C244        H248   1.085       .  S
C245        C246   1.401       .  A
C245       C1335   1.467       .  S
C246        H249   1.084       .  S
C250        C251   1.408       .  A
C250        C255   1.412       .  A
C250       C1292   1.487       .  S
C251        C252   1.399   1_455  A
C251        H256   1.084       .  S
C252        C253   1.394       .  A
C252       C1425   1.469       .  S
C253        C254   1.400       .  A
C253        H257   1.085       .  S
C254        C255   1.410   1_655  A
C254       C1282   1.486       .  S
C255        H258   1.083       .  S
O259       Cr277   1.975       .  S
O259        C267   1.261       .  A
O260       Cr277   1.999   1_455  S
O260        C261   1.263       .  A
C261       C1275   1.488       .  S
C261        O262   1.259       .  A
O262       Cr278   1.989       .  S
O263       Cr278   2.006   1_655  S
O263        C264   1.268       .  A
C264       C1405   1.476       .  S
C264        O265   1.261       .  A
O265       Cr279   1.978       .  S
O266       Cr279   2.018       .  S
O266        C267   1.269       .  A
C267       C1262   1.478       .  S
O268       Cr277   2.000       .  S
O268        C276   1.262       .  A
O269       Cr277   1.972   1_455  S
O269        C270   1.260       .  A
C270       C1305   1.476       .  S
C270        O271   1.271       .  A
O271       Cr278   2.027       .  S
O272       Cr278   1.982       .  S
O272        C273   1.262       .  A
C273       C1252   1.486       .  S
C273        O274   1.263   1_455  A
O274       Cr279   1.994       .  S
O275       Cr279   1.982       .  S
O275        C276   1.258       .  A
C276       C1285   1.480       .  S
Cr277       O280   1.766       .  S
Cr278       O280   1.766   1_455  S
Cr279       O280   1.764       .  S
O281       Cr299   2.004       .  S
O281        C289   1.266       .  A
O282       Cr299   1.979       .  S
O282        C283   1.262       .  A
C283       C1295   1.484       .  S
C283        O284   1.271       .  A
O284       Cr300   2.017       .  S
O285       Cr300   1.977       .  S
O285        C286   1.259       .  A
C286       C1222   1.472       .  S
C286        O287   1.267       .  A
O287       Cr301   2.012       .  S
O288       Cr301   1.983       .  S
O288        C289   1.258       .  A
C289       C1315   1.492       .  S
O290       Cr299   1.981       .  S
O290        C298   1.261       .  A
O291       Cr299   1.999       .  S
O291        C292   1.262       .  A
C292       C1242   1.482       .  S
C292        O293   1.258       .  A
O293       Cr300   1.982       .  S
O294       Cr300   2.002       .  S
O294        C295   1.268       .  A
C295       C1462   1.482       .  S
C295        O296   1.260       .  A
O296       Cr301   1.976       .  S
O297       Cr301   2.028       .  S
O297        C298   1.271       .  A
C298       C1232   1.483       .  S
Cr299       O302   1.769       .  S
Cr300       O302   1.763       .  S
Cr301       O302   1.768       .  S
C303        C304   1.413       .  A
C303        C308   1.417       .  A
C303       C1212   1.501       .  S
C304        C305   1.402       .  A
C304        H309   1.084       .  S
C305        C306   1.391       .  A
C305       C1202   1.475       .  S
C306        C307   1.397       .  A
C306        H310   1.085       .  S
C307        C308   1.412       .  A
C307       C1245   1.486   1_554  S
C308        H311   1.082       .  S
C312        C313   1.415       .  A
C312        C317   1.414       .  A
C312       C1235   1.498       .  S
C313        C314   1.407       .  A
C313        H318   1.083       .  S
C314        C315   1.397       .  A
C314       C1192   1.482       .  S
C315        C316   1.398       .  A
C315        H319   1.084       .  S
C316        C317   1.406       .  A
C316       C1182   1.479       .  S
C317        H320   1.083       .  S
O321       Cr339   1.982       .  S
O321        C329   1.262       .  A
O322       Cr339   2.002       .  S
O322        C323   1.264       .  A
C323       C1195   1.498       .  S
C323        O324   1.259       .  A
O324       Cr340   1.990       .  S
O325       Cr340   2.004       .  S
O325        C326   1.266       .  A
C326       C1485   1.468       .  S
C326        O327   1.259       .  A
O327       Cr341   1.980       .  S
O328       Cr341   2.017       .  S
O328        C329   1.269       .  A
C329       C1215   1.492       .  S
O330       Cr339   2.000       .  S
O330        C338   1.264       .  A
O331       Cr339   1.973       .  S
O331        C332   1.260       .  A
C332       C1165   1.480       .  S
C332        O333   1.272       .  A
O333       Cr340   2.030       .  S
O334       Cr340   1.986       .  S
O334        C335   1.263       .  A
C335       C1152   1.492       .  S
C335        O336   1.267       .  A
O336       Cr341   1.998       .  S
O337       Cr341   1.986       .  S
O337        C338   1.258       .  A
C338       C1172   1.487       .  S
Cr339       O342   1.772       .  S
Cr340       O342   1.770       .  S
Cr341       O342   1.765       .  S
C343        C344   1.410       .  A
C343        C348   1.412       .  A
C343       C1265   1.494       .  S
C344        C345   1.401       .  A
C344        H349   1.083       .  S
C345        C346   1.392       .  A
C345       C1142   1.468       .  S
C346        C347   1.395       .  A
C346        H350   1.086       .  S
C347        C348   1.406       .  A
C347       C1135   1.473       .  S
C348        H351   1.083       .  S
C352        C353   1.411       .  A
C352        C357   1.409       .  A
C352       C1122   1.489       .  S
C353        C354   1.408   1_655  A
C353        H358   1.083       .  S
C354        C355   1.399       .  A
C354       C1112   1.486       .  S
C355        C356   1.402   1_455  A
C355        H359   1.085       .  S
C356        C357   1.408       .  A
C356       C1272   1.485       .  S
C357        H360   1.084       .  S
C361        C362   1.409       .  A
C361        C366   1.414       .  A
C361       C1092   1.496       .  S
C362        C363   1.401       .  A
C362        H367   1.083       .  S
C363        C364   1.392       .  A
C363       C1102   1.471       .  S
C364        C365   1.398       .  A
C364        H368   1.084       .  S
C365        C366   1.411       .  A
C365       C1715   1.488       .  S
C366        H369   1.083       .  S
C370        C371   1.415       .  A
C370        C375   1.409       .  A
C370       C1082   1.497       .  S
C371        C372   1.405       .  A
C371        H376   1.084       .  S
C372        C373   1.396       .  A
C372       C1072   1.477       .  S
C373        C374   1.397       .  A
C373        H377   1.084       .  S
C374        C375   1.405       .  A
C374       C1515   1.474       .  S
C375        H378   1.084       .  S
O379       Cr397   2.000       .  S
O379        C387   1.261       .  A
O380       Cr397   1.989       .  S
O380        C381   1.264   1_545  A
C381       C1095   1.491       .  S
C381        O382   1.267       .  A
O382       Cr398   2.012       .  S
O383       Cr398   1.983       .  S
O383        C384   1.262       .  A
C384       C1062   1.482       .  S
C384        O385   1.261       .  A
O385       Cr399   1.988   1_565  S
O386       Cr399   1.986       .  S
O386        C387   1.259       .  A
C387       C1075   1.490       .  S
O388       Cr397   1.989       .  S
O388        C396   1.264       .  A
O389       Cr397   2.000       .  S
O389        C390   1.261       .  A
C390       C1145   1.483       .  S
C390        O391   1.258   1_545  A
O391       Cr398   1.979       .  S
O392       Cr398   1.984       .  S
O392        C393   1.260       .  A
C393       C1385   1.488       .  S
C393        O394   1.264       .  A
O394       Cr399   1.990   1_565  S
O395       Cr399   2.012       .  S
O395        C396   1.269       .  A
C396       C1125   1.486       .  S
Cr397       O400   1.775       .  S
Cr398       O400   1.771   1_565  S
Cr399       O400   1.771       .  S
O401       Cr419   1.968       .  S
O401        C409   1.261       .  A
O402       Cr419   2.001       .  S
O402        C403   1.264   1_565  A
C403       C1052   1.494   1_545  S
C403        O404   1.258       .  A
O404       Cr420   1.987       .  S
O405       Cr420   2.016       .  S
O405        C406   1.267       .  A
C406       C1545   1.471       .  S
C406        O407   1.257       .  A
O407       Cr421   1.974       .  S
O408       Cr421   2.025   1_565  S
O408        C409   1.272       .  A
C409       C1045   1.486       .  S
O410       Cr419   1.999       .  S
O410        C418   1.260       .  A
O411       Cr419   1.970   1_545  S
O411        C412   1.260       .  A
C412       C1085   1.483       .  S
C412        O413   1.274       .  A
O413       Cr420   2.035       .  S
O414       Cr420   1.969       .  S
O414        C415   1.259       .  A
C415       C1035   1.467       .  S
C415        O416   1.269       .  A
O416       Cr421   2.014       .  S
O417       Cr421   1.981       .  S
O417        C418   1.259   1_545  A
C418       C1105   1.483       .  S
Cr419       O422   1.771   1_565  S
Cr420       O422   1.770       .  S
Cr421       O422   1.765       .  S
C423        C424   1.411       .  A
C423        C428   1.414       .  A
C423       C1042   1.490       .  S
C424        C425   1.400   1_455  A
C424        H429   1.084       .  S
C425        C426   1.392       .  A
C425       C1012   1.468       .  S
C426        C427   1.393   1_655  A
C426        H430   1.085       .  S
C427        C428   1.404       .  A
C427       C1022   1.471       .  S
C428        H431   1.083       .  S
C432        C433   1.411       .  A
C432        C437   1.410       .  A
C432       C1005   1.493       .  S
C433        C434   1.405       .  A
C433        H438   1.083       .  S
C434        C435   1.398       .  A
C434       C1055   1.478       .  S
C435        C436   1.399       .  A
C435        H439   1.087       .  S
C436        C437   1.406       .  A
C436        C992   1.482       .  S
C437        H440   1.082       .  S
C441        C442   1.412       .  A
C441        C446   1.412       .  A
C441       C1162   1.492       .  S
C442        C443   1.402       .  A
C442        H447   1.083       .  S
C443        C444   1.391   1_655  A
C443        C985   1.472       .  S
C444        C445   1.397       .  A
C444        H448   1.085       .  S
C445        C446   1.409   1_455  A
C445       C1612   1.486       .  S
C446        H449   1.082       .  S
C450        C451   1.412       .  A
C450        C455   1.410       .  A
C450        C972   1.489       .  S
C451        C452   1.411       .  A
C451        H456   1.081       .  S
C452        C453   1.401       .  A
C452       C1572   1.493       .  S
C453        C454   1.394       .  A
C453        H457   1.085       .  S
C454        C455   1.404       .  A
C454       C1175   1.476       .  S
C455        H458   1.084       .  S
O459       Cr477   1.998   1_455  S
O459        C467   1.260       .  A
O460       Cr477   1.978       .  S
O460        C461   1.262       .  A
C461        C975   1.484       .  S
C461        O462   1.273       .  A
O462       Cr478   2.023       .  S
O463       Cr478   1.987       .  S
O463        C464   1.264       .  A
C464        C965   1.488       .  S
C464        O465   1.263   1_655  A
O465       Cr479   1.994       .  S
O466       Cr479   1.981       .  S
O466        C467   1.259       .  A
C467        C982   1.488       .  S
O468       Cr477   1.979   1_455  S
O468        C476   1.261       .  A
O469       Cr477   1.989       .  S
O469        C470   1.257       .  A
C470       C1025   1.489       .  S
C470        O471   1.258       .  A
O471       Cr478   1.989       .  S
O472       Cr478   1.989       .  S
O472        C473   1.262   1_655  A
C473       C1525   1.491       .  S
C473        O474   1.265       .  A
O474       Cr479   1.991       .  S
O475       Cr479   2.024       .  S
O475        C476   1.270       .  A
C476       C1002   1.480       .  S
Cr477       O480   1.779       .  S
Cr478       O480   1.767       .  S
Cr479       O480   1.770   1_455  S
C481        C482   1.415       .  A
C481        C486   1.418       .  A
C481        C942   1.501       .  S
C482        C483   1.406       .  A
C482        H487   1.083       .  S
C483        C484   1.393       .  A
C483       C1255   1.479       .  S
C484        C485   1.390       .  A
C484        H488   1.086       .  S
C485        C486   1.406       .  A
C485        C952   1.478       .  S
C486        H489   1.082       .  S
C490        C491   1.417       .  A
C490        C495   1.411   1_565  A
C490        C935   1.498       .  S
C491        C492   1.409   1_565  A
C491        H496   1.083       .  S
C492        C493   1.395       .  A
C492        C922   1.482       .  S
C493        C494   1.393       .  A
C493        H497   1.085       .  S
C494        C495   1.405       .  A
C494       C1225   1.473       .  S
C495        H498   1.084       .  S
O499       Cr517   1.973   1_565  S
O499        C507   1.262       .  A
O500       Cr517   2.008       .  S
O500        C501   1.266       .  A
C501        C925   1.496       .  S
C501        O502   1.256       .  A
O502       Cr518   1.982       .  S
O503       Cr518   2.018       .  S
O503        C504   1.269   1_545  A
C504       C1365   1.472       .  S
C504        O505   1.259       .  A
O505       Cr519   1.973       .  S
O506       Cr519   2.029       .  S
O506        C507   1.273       .  A
C507        C945   1.494       .  S
O508       Cr517   2.007   1_565  S
O508        C516   1.263   1_565  A
O509       Cr517   1.972       .  S
O509        C510   1.260       .  A
C510        C902   1.486       .  S
C510        O511   1.273       .  A
O511       Cr518   2.026       .  S
O512       Cr518   1.968       .  S
O512        C513   1.255       .  A
C513       C1132   1.462       .  S
C513        O514   1.264       .  A
O514       Cr519   2.006   1_545  S
O515       Cr519   1.983   1_545  S
O515        C516   1.259       .  A
C516        C912   1.492       .  S
Cr517       O520   1.774       .  S
Cr518       O520   1.769       .  S
Cr519       O520   1.770   1_565  S
C521        C522   1.405   1_565  A
C521        C526   1.411       .  A
C521        C885   1.492       .  S
C522        C523   1.408       .  A
C522        H527   1.083       .  S
C523        C524   1.403       .  A
C523       C1505   1.492       .  S
C524        C525   1.401       .  A
C524        H528   1.082       .  S
C525        C526   1.406   1_545  A
C525        C892   1.489       .  S
C526        H529   1.083       .  S
C530        C531   1.412       .  A
C530        C535   1.415       .  A
C530        C872   1.499       .  S
C531        C532   1.405       .  A
C531        H536   1.083       .  S
C532        C533   1.396       .  A
C532       C1565   1.481       .  S
C533        C534   1.393       .  A
C533        H537   1.086       .  S
C534        C535   1.405       .  A
C534        C862   1.476       .  S
C535        H538   1.082       .  S
C539        C540   1.414       .  A
C539        C544   1.408       .  A
C539        C845   1.492       .  S
C540        C541   1.411       .  A
C540        H545   1.083       .  S
C541        C542   1.398       .  A
C541        C855   1.481   1_554  S
C542        C543   1.397       .  A
C542        H546   1.085       .  S
C543        C544   1.407       .  A
C543       C1605   1.485       .  S
C544        H547   1.084       .  S
C548        C549   1.409       .  A
C548        C553   1.410       .  A
C548        C832   1.490       .  S
C549        C550   1.405       .  A
C549        H554   1.083       .  S
C550        C551   1.399       .  A
C550       C1435   1.475       .  S
C551        C552   1.399       .  A
C551        H555   1.084       .  S
C552        C553   1.405       .  A
C552        C822   1.484       .  S
C553        H556   1.084       .  S
C557        C558   1.411       .  A
C557        C562   1.415       .  A
C557        C802   1.495       .  S
C558        C559   1.404   1_545  A
C558        H563   1.084       .  S
C559        C560   1.396   1_565  A
C559       C1155   1.481       .  S
C560        C561   1.396       .  A
C560        H564   1.085   1_545  S
C561        C562   1.409       .  A
C561        C812   1.480       .  S
C562        H565   1.083       .  S
C566        C567   1.411       .  A
C566        C571   1.411       .  A
C566        C792   1.489       .  S
C567        C568   1.404       .  A
C567        H572   1.084       .  S
C568        C569   1.396       .  A
C568        C782   1.479       .  S
C569        C570   1.399       .  A
C569        H573   1.085       .  S
C570        C571   1.408       .  A
C570        C962   1.479       .  S
C571        H574   1.083       .  S
O575       Cr593   2.021       .  S
O575        C583   1.270       .  A
O576       Cr593   1.966       .  S
O576        C577   1.253       .  A
C577        C785   1.491       .  S
C577        O578   1.268   1_655  A
O578       Cr594   2.023       .  S
O579       Cr594   1.989       .  S
O579        C580   1.267       .  A
C580       C1675   1.470       .  S
C580        O581   1.263       .  A
O581       Cr595   1.994       .  S
O582       Cr595   1.971   1_655  S
O582        C583   1.257       .  A
C583        C805   1.499       .  S
O584       Cr593   1.965       .  S
O584        C592   1.252       .  A
O585       Cr593   2.020       .  S
O585        C586   1.269   1_655  A
C586        C842   1.503       .  S
C586        O587   1.261       .  A
O587       Cr594   1.977       .  S
O588       Cr594   1.992       .  S
O588        C589   1.262       .  A
C589       C1205   1.468       .  S
C589        O590   1.265       .  A
O590       Cr595   1.992       .  S
O591       Cr595   2.016   1_655  S
O591        C592   1.267       .  A
C592        C825   1.493       .  S
Cr593       O596   1.776   1_655  S
Cr594       O596   1.774       .  S
Cr595       O596   1.772       .  S
O597       Cr615   2.006       .  S
O597        C605   1.263       .  A
O598       Cr615   1.969   1_565  S
O598        C599   1.261       .  A
C599        C875   1.492       .  S
C599        O600   1.273       .  A
O600       Cr616   2.030       .  S
O601       Cr616   1.978       .  S
O601        C602   1.259       .  A
C602        C995   1.470       .  S
C602        O603   1.266   1_565  A
O603       Cr617   2.008       .  S
O604       Cr617   1.979       .  S
O604        C605   1.257       .  A
C605        C895   1.478       .  S
O606       Cr615   1.974       .  S
O606        C614   1.260       .  A
O607       Cr615   2.002       .  S
O607        C608   1.260       .  A
C608        C815   1.497       .  S
C608        O609   1.260       .  A
O609       Cr616   1.993   1_545  S
O610       Cr616   2.011   1_545  S
O610        C611   1.267       .  A
C611       C1642   1.469       .  S
C611        O612   1.258       .  A
O612       Cr617   1.968       .  S
O613       Cr617   2.034       .  S
O613        C614   1.273       .  A
C614        C795   1.481       .  S
Cr615       O618   1.774       .  S
Cr616       O618   1.773   1_565  S
Cr617       O618   1.773       .  S
O619       Cr637   2.004       .  S
O619        C627   1.262       .  A
O620       Cr637   1.974       .  S
O620        C621   1.260   1_455  A
C621        C835   1.478       .  S
C621        O622   1.269       .  A
O622       Cr638   2.021       .  S
O623       Cr638   1.988       .  S
O623        C624   1.264       .  A
C624       C1185   1.489       .  S
C624        O625   1.269       .  A
O625       Cr639   2.007       .  S
O626       Cr639   1.990       .  S
O626        C627   1.259   1_655  A
C627        C852   1.499       .  S
O628       Cr637   1.967       .  S
O628        C636   1.256       .  A
O629       Cr637   2.006       .  S
O629        C630   1.264       .  A
C630        C955   1.488       .  S
C630        O631   1.261   1_455  A
O631       Cr638   1.985       .  S
O632       Cr638   2.001       .  S
O632        C633   1.266       .  A
C633       C1345   1.479       .  S
C633        O634   1.262       .  A
O634       Cr639   1.982       .  S
O635       Cr639   2.038   1_455  S
O635        C636   1.273       .  A
C636        C932   1.484       .  S
Cr637       O640   1.774   1_455  S
Cr638       O640   1.771       .  S
Cr639       O640   1.767       .  S
C641        C642   1.412       .  A
C641        C646   1.413       .  A
C641        C762   1.498       .  S
C642        C643   1.403       .  A
C642        H647   1.083       .  S
C643        C644   1.393       .  A
C643        C772   1.478       .  S
C644        C645   1.402       .  A
C644        H648   1.084       .  S
C645        C646   1.410       .  A
C645       C1032   1.492       .  S
C646        H649   1.082       .  S
C650        C651   1.417       .  A
C650        C655   1.408       .  A
C650        C752   1.492       .  S
C651        C652   1.406       .  A
C651        H656   1.084       .  S
C652        C653   1.395       .  A
C652        C742   1.479       .  S
C653        C654   1.395       .  A
C653        H657   1.085       .  S
C654        C655   1.401       .  A
C654       C1065   1.469       .  S
C655        H658   1.083       .  S
O659       Cr677   1.976       .  S
O659        C667   1.260       .  A
O660       Cr677   2.003       .  S
O660        C661   1.262       .  A
C661        C865   1.487       .  S
C661        O662   1.260       .  A
O662       Cr678   1.982       .  S
O663       Cr678   1.997       .  S
O663        C664   1.267       .  A
C664       C1015   1.479       .  S
C664        O665   1.261       .  A
O665       Cr679   1.976       .  S
O666       Cr679   2.027       .  S
O666        C667   1.271       .  A
C667        C882   1.483       .  S
O668       Cr677   1.999       .  S
O668        C676   1.264       .  A
O669       Cr677   1.978       .  S
O669        C670   1.262       .  A
C670        C765   1.485       .  S
C670        O671   1.270       .  A
O671       Cr678   2.021       .  S
O672       Cr678   1.976       .  S
O672        C673   1.260       .  A
C673       C1745   1.481       .  S
C673        O674   1.266       .  A
O674       Cr679   1.997       .  S
O675       Cr679   1.983       .  S
O675        C676   1.256       .  A
C676        C745   1.493       .  S
Cr677       O680   1.768       .  S
Cr678       O680   1.765       .  S
Cr679       O680   1.770       .  S
C681        C682   1.414       .  A
C681        C686   1.410       .  A
C681        C905   1.490       .  S
C682        C683   1.409       .  A
C682        H687   1.084       .  S
C683        C684   1.394       .  A
C683        C735   1.481       .  S
C684        C685   1.396       .  A
C684        H688   1.086       .  S
C685        C686   1.405       .  A
C685       C1325   1.477       .  S
C686        H689   1.083       .  S
C690        C691   1.408       .  A
C690        C695   1.413       .  A
C690        C722   1.492       .  S
C691        C692   1.403   1_545  A
C691        H696   1.083       .  S
C692        C693   1.398       .  A
C692       C1705   1.481       .  S
C693        C694   1.396   1_565  A
C693        H697   1.086       .  S
C694        C695   1.406       .  A
C694        C915   1.476       .  S
C695        H698   1.082       .  S
O699       Cr717   2.009       .  S
O699        C707   1.265       .  A
O700       Cr717   1.970       .  S
O700        C701   1.260       .  A
C701        C725   1.488       .  S
C701        O702   1.271       .  A
O702       Cr718   2.024       .  S
O703       Cr718   1.979       .  S
O703        C704   1.259       .  A
C704       C1115   1.475       .  S
C704        O705   1.266       .  A
O705       Cr719   2.017       .  S
O706       Cr719   1.983       .  S
O706        C707   1.260       .  A
C707        C732   1.487       .  S
O708       Cr717   1.971       .  S
O708        C716   1.258       .  A
O709       Cr717   2.006       .  S
O709        C710   1.263       .  A
C710        C775   1.487       .  S
C710        O711   1.259       .  A
O711       Cr718   1.982       .  S
O712       Cr718   2.009       .  S
O712        C713   1.267       .  A
C713       C1775   1.463       .  S
C713        O714   1.258       .  A
O714       Cr719   1.969       .  S
O715       Cr719   2.029       .  S
O715        C716   1.270       .  A
C716        C755   1.484       .  S
Cr717       O720   1.775       .  S
Cr718       O720   1.771       .  S
Cr719       O720   1.776       .  S
C721        C722   1.405       .  A
C721        C726   1.399       .  A
C721        H728   1.083       .  S
C722        C723   1.412       .  A
C723        C724   1.403       .  A
C723       Br730   1.920       .  S
C724        C725   1.408       .  A
C724        H729   1.083       .  S
C725        C726   1.413       .  A
C726       Br727   1.918       .  S
C731        C732   1.405       .  A
C731        C736   1.400       .  A
C731        H738   1.083       .  S
C732        C733   1.417       .  A
C733        C734   1.401       .  A
C733       Br740   1.917       .  S
C734        C735   1.399       .  A
C734        H739   1.083       .  S
C735        C736   1.412       .  A
C736       Br737   1.921       .  S
C741        C742   1.400       .  A
C741        C746   1.404       .  A
C741        H748   1.084       .  S
C742        C743   1.406       .  A
C743        C744   1.397       .  A
C743       Br750   1.919       .  S
C744        C745   1.408       .  A
C744        H749   1.083       .  S
C745        C746   1.422       .  A
C746       Br747   1.922       .  S
C751        C752   1.399       .  A
C751        C756   1.393       .  A
C751        H758   1.084       .  S
C752        C753   1.419       .  A
C753        C754   1.410       .  A
C753       Br760   1.920       .  S
C754        C755   1.404       .  A
C754        H759   1.083       .  S
C755        C756   1.411       .  A
C756       Br757   1.909       .  S
C761        C762   1.410       .  A
C761        C766   1.404       .  A
C761        H768   1.084       .  S
C762        C763   1.416       .  A
C763        C764   1.401       .  A
C763       Br770   1.922       .  S
C764        C765   1.405       .  A
C764        H769   1.085       .  S
C765        C766   1.409       .  A
C766       Br767   1.919       .  S
C771        C772   1.400       .  A
C771        C776   1.398       .  A
C771        H778   1.083       .  S
C772        C773   1.407       .  A
C773        C774   1.402       .  A
C773       Br780   1.918       .  S
C774        C775   1.408       .  A
C774        H779   1.082       .  S
C775        C776   1.417       .  A
C776       Br777   1.920       .  S
C781        C782   1.399       .  A
C781        C786   1.401       .  A
C781        H788   1.083       .  S
C782        C783   1.407       .  A
C783        C784   1.401       .  A
C783       Br790   1.919   1_655  S
C784        C785   1.407       .  A
C784        H789   1.082   1_655  S
C785        C786   1.421       .  A
C786       Br787   1.923       .  S
C791        C792   1.401       .  A
C791        C796   1.398       .  A
C791        H798   1.084       .  S
C792        C793   1.414       .  A
C793        C794   1.409       .  A
C793       Br800   1.918       .  S
C794        C795   1.404       .  A
C794        H799   1.084       .  S
C795        C796   1.410       .  A
C796       Br797   1.917       .  S
C801        C802   1.404       .  A
C801        C806   1.401       .  A
C801        H808   1.083       .  S
C802        C803   1.412       .  A
C803        C804   1.406       .  A
C803       Br810   1.919       .  S
C804        C805   1.410       .  A
C804        H809   1.083       .  S
C805        C806   1.420       .  A
C806       Br807   1.924       .  S
C811        C812   1.400       .  A
C811        C816   1.400       .  A
C811        H818   1.084       .  S
C812        C813   1.406       .  A
C813        C814   1.404       .  A
C813       Br820   1.918       .  S
C814        C815   1.412       .  A
C814        H819   1.083       .  S
C815        C816   1.421       .  A
C816       Br817   1.923       .  S
C821        C822   1.399   1_554  A
C821        C826   1.399       .  A
C821        H828   1.083       .  S
C822        C823   1.410       .  A
C823        C824   1.398   1_556  A
C823       Br830   1.916       .  S
C824        C825   1.406       .  A
C824        H829   1.082       .  S
C825        C826   1.422       .  A
C826       Br827   1.917       .  S
C831        C832   1.409       .  A
C831        C836   1.405       .  A
C831        H838   1.083       .  S
C832        C833   1.412       .  A
C833        C834   1.398       .  A
C833       Br840   1.922       .  S
C834        C835   1.403       .  A
C834        H839   1.084       .  S
C835        C836   1.407       .  A
C836       Br837   1.917       .  S
C841        C842   1.412       .  A
C841        C846   1.401       .  A
C841        H848   1.084       .  S
C842        C843   1.419       .  A
C843        C844   1.410       .  A
C843       Br850   1.921   1_455  S
C844        C845   1.405       .  A
C844        H849   1.084   1_455  S
C845        C846   1.408       .  A
C846       Br847   1.920       .  S
C851        C852   1.412   1_655  A
C851        C856   1.404   1_655  A
C851        H858   1.083       .  S
C852        C853   1.421       .  A
C853        C854   1.402       .  A
C853       Br860   1.922       .  S
C854        C855   1.401       .  A
C854        H859   1.084       .  S
C855        C856   1.405       .  A
C856       Br857   1.917   1_456  S
C861        C862   1.398       .  A
C861        C866   1.401       .  A
C861        H868   1.083       .  S
C862        C863   1.408       .  A
C863        C864   1.399       .  A
C863       Br870   1.919       .  S
C864        C865   1.406       .  A
C864        H869   1.083       .  S
C865        C866   1.419       .  A
C866       Br867   1.920       .  S
C871        C872   1.409       .  A
C871        C876   1.403       .  A
C871        H878   1.084       .  S
C872        C873   1.414       .  A
C873        C874   1.402       .  A
C873       Br880   1.922       .  S
C874        C875   1.408       .  A
C874        H879   1.084       .  S
C875        C876   1.414       .  A
C876       Br877   1.920       .  S
C881        C882   1.403       .  A
C881        C886   1.407       .  A
C881        H888   1.083       .  S
C882        C883   1.412       .  A
C883        C884   1.397       .  A
C883       Br890   1.915       .  S
C884        C885   1.401       .  A
C884        H889   1.084       .  S
C885        C886   1.418       .  A
C886       Br887   1.920       .  S
C891        C892   1.407       .  A
C891        C896   1.401       .  A
C891        H898   1.083       .  S
C892        C893   1.413   1_545  A
C893        C894   1.402   1_565  A
C893       Br900   1.920       .  S
C894        C895   1.404       .  A
C894        H899   1.084   1_545  S
C895        C896   1.408       .  A
C896       Br897   1.919       .  S
C901        C902   1.405       .  A
C901        C906   1.404       .  A
C901        H908   1.083       .  S
C902        C903   1.412       .  A
C903        C904   1.404       .  A
C903       Br910   1.918       .  S
C904        C905   1.404       .  A
C904        H909   1.083       .  S
C905        C906   1.412       .  A
C906       Br907   1.919       .  S
C911        C912   1.410       .  A
C911        C916   1.401       .  A
C911        H918   1.082       .  S
C912        C913   1.419       .  A
C913        C914   1.401       .  A
C913       Br920   1.921       .  S
C914        C915   1.399       .  A
C914        H919   1.083       .  S
C915        C916   1.405       .  A
C916       Br917   1.918       .  S
C921        C922   1.401       .  A
C921        C926   1.405       .  A
C921        H928   1.084   1_545  S
C922        C923   1.407       .  A
C923        C924   1.398       .  A
C923       Br930   1.920       .  S
C924        C925   1.408       .  A
C924        H929   1.083       .  S
C925        C926   1.422       .  A
C926       Br927   1.922       .  S
C931        C932   1.404       .  A
C931        C936   1.402       .  A
C931        H938   1.083       .  S
C932        C933   1.407       .  A
C933        C934   1.409       .  A
C933       Br940   1.916       .  S
C934        C935   1.412       .  A
C934        H939   1.082       .  S
C935        C936   1.413       .  A
C936       Br937   1.921       .  S
C941        C942   1.408       .  A
C941        C946   1.404       .  A
C941        H948   1.084       .  S
C942        C943   1.415       .  A
C943        C944   1.403       .  A
C943       Br950   1.921       .  S
C944        C945   1.408       .  A
C944        H949   1.084       .  S
C945        C946   1.415       .  A
C946       Br947   1.920       .  S
C951        C952   1.399       .  A
C951        C956   1.403       .  A
C951        H958   1.083       .  S
C952        C953   1.410       .  A
C953        C954   1.397       .  A
C953       Br960   1.921   1_455  S
C954        C955   1.404       .  A
C954        H959   1.083   1_455  S
C955        C956   1.420       .  A
C956       Br957   1.918       .  S
C961        C962   1.397       .  A
C961        C966   1.394       .  A
C961        H968   1.084       .  S
C962        C963   1.408       .  A
C963        C964   1.405       .  A
C963       Br970   1.917       .  S
C964        C965   1.409       .  A
C964        H969   1.083       .  S
C965        C966   1.421       .  A
C966       Br967   1.926   1_655  S
C971        C972   1.405       .  A
C971        C976   1.404       .  A
C971        H978   1.084       .  S
C972        C973   1.411       .  A
C973        C974   1.402       .  A
C973       Br980   1.918       .  S
C974        C975   1.404       .  A
C974        H979   1.084       .  S
C975        C976   1.411       .  A
C976       Br977   1.917       .  S
C981        C982   1.407       .  A
C981        C986   1.396   1_455  A
C981        H988   1.083       .  S
C982        C983   1.420   1_455  A
C983        C984   1.401       .  A
C983       Br990   1.920       .  S
C984        C985   1.399       .  A
C984        H989   1.084       .  S
C985        C986   1.405       .  A
C986       Br987   1.919       .  S
C991        C992   1.410       .  A
C991        C996   1.405       .  A
C991        H998   1.074       .  S
C992        C993   1.409       .  A
C993        C994   1.397       .  A
C993      Br1000   1.921       .  S
C994        C995   1.403       .  A
C994        H999   1.074       .  S
C995        C996   1.403       .  A
C996       Br997   1.917       .  S
C1001      C1002   1.404       .  A
C1001      C1006   1.401       .  A
C1001      H1008   1.083       .  S
C1002      C1003   1.407       .  A
C1003      C1004   1.404       .  A
C1003     Br1010   1.917       .  S
C1004      C1005   1.409       .  A
C1004      H1009   1.082       .  S
C1005      C1006   1.413       .  A
C1006     Br1007   1.921       .  S
C1011      C1012   1.403       .  A
C1011      C1016   1.403       .  A
C1011      H1018   1.083       .  S
C1012      C1013   1.402       .  A
C1013      C1014   1.390       .  A
C1013     Br1020   1.921       .  S
C1014      C1015   1.407       .  A
C1014      H1019   1.083       .  S
C1015      C1016   1.414       .  A
C1016     Br1017   1.920       .  S
C1021      C1022   1.397       .  A
C1021      C1026   1.398       .  A
C1021      H1028   1.084       .  S
C1022      C1023   1.405       .  A
C1023      C1024   1.399       .  A
C1023     Br1030   1.918       .  S
C1024      C1025   1.409   1_455  A
C1024      H1029   1.083   1_455  S
C1025      C1026   1.421   1_655  A
C1026     Br1027   1.923       .  S
C1031      C1032   1.413       .  A
C1031      C1036   1.397       .  A
C1031      H1038   1.084       .  S
C1032      C1033   1.415       .  A
C1033      C1034   1.399       .  A
C1033     Br1040   1.921       .  S
C1034      C1035   1.402       .  A
C1034      H1039   1.085       .  S
C1035      C1036   1.400       .  A
C1036     Br1037   1.917       .  S
C1041      C1042   1.406       .  A
C1041      C1046   1.399       .  A
C1041      H1048   1.083       .  S
C1042      C1043   1.412       .  A
C1043      C1044   1.401       .  A
C1043     Br1050   1.921       .  S
C1044      C1045   1.407       .  A
C1044      H1049   1.083       .  S
C1045      C1046   1.413       .  A
C1046     Br1047   1.920       .  S
C1051      C1052   1.410       .  A
C1051      C1056   1.398       .  A
C1051      H1058   1.083       .  S
C1052      C1053   1.420   1_565  A
C1053      C1054   1.403   1_545  A
C1053     Br1060   1.922       .  S
C1054      C1055   1.400       .  A
C1054      H1059   1.083       .  S
C1055      C1056   1.404       .  A
C1056     Br1057   1.919       .  S
C1061      C1062   1.409       .  A
C1061      C1066   1.403       .  A
C1061      H1068   1.081       .  S
C1062      C1063   1.420       .  A
C1063      C1064   1.390       .  A
C1063     Br1070   1.926       .  S
C1064      C1065   1.396       .  A
C1064      H1069   1.084       .  S
C1065      C1066   1.405       .  A
C1066     Br1067   1.917       .  S
C1071      C1072   1.399       .  A
C1071      C1076   1.400       .  A
C1071      H1078   1.084       .  S
C1072      C1073   1.405       .  A
C1073      C1074   1.401       .  A
C1073     Br1080   1.918       .  S
C1074      C1075   1.409       .  A
C1074      H1079   1.084       .  S
C1075      C1076   1.420       .  A
C1076     Br1077   1.923       .  S
C1081      C1082   1.403       .  A
C1081      C1086   1.397       .  A
C1081      H1088   1.084       .  S
C1082      C1083   1.419       .  A
C1083      C1084   1.407       .  A
C1083     Br1090   1.918       .  S
C1084      C1085   1.402       .  A
C1084      H1089   1.084       .  S
C1085      C1086   1.411       .  A
C1086     Br1087   1.917       .  S
C1091      C1092   1.405       .  A
C1091      C1096   1.402       .  A
C1091      H1098   1.084       .  S
C1092      C1093   1.416   1_565  A
C1093      C1094   1.403       .  A
C1093     Br1100   1.921       .  S
C1094      C1095   1.405   1_545  A
C1094      H1099   1.084       .  S
C1095      C1096   1.417       .  A
C1096     Br1097   1.920       .  S
C1101      C1102   1.398       .  A
C1101      C1106   1.397       .  A
C1101      H1108   1.085       .  S
C1102      C1103   1.406       .  A
C1103      C1104   1.398   1_565  A
C1103     Br1110   1.919   1_565  S
C1104      C1105   1.407   1_545  A
C1104      H1109   1.084       .  S
C1105      C1106   1.418       .  A
C1106     Br1107   1.922       .  S
C1111      C1112   1.409       .  A
C1111      C1116   1.404       .  A
C1111      H1118   1.083       .  S
C1112      C1113   1.409       .  A
C1113      C1114   1.401       .  A
C1113     Br1120   1.919       .  S
C1114      C1115   1.404       .  A
C1114      H1119   1.083       .  S
C1115      C1116   1.405       .  A
C1116     Br1117   1.918       .  S
C1121      C1122   1.407       .  A
C1121      C1126   1.407       .  A
C1121      H1128   1.083       .  S
C1122      C1123   1.409       .  A
C1123      C1124   1.401       .  A
C1123     Br1130   1.919       .  S
C1124      C1125   1.405       .  A
C1124      H1129   1.083       .  S
C1125      C1126   1.411       .  A
C1126     Br1127   1.917       .  S
C1131      C1132   1.402       .  A
C1131      C1136   1.395       .  A
C1131      H1138   1.084       .  S
C1132      C1133   1.402       .  A
C1133      C1134   1.400       .  A
C1133     Br1140   1.917       .  S
C1134      C1135   1.408       .  A
C1134      H1139   1.083       .  S
C1135      C1136   1.407       .  A
C1136     Br1137   1.920       .  S
C1141      C1142   1.397       .  A
C1141      C1146   1.395       .  A
C1141      H1148   1.085       .  S
C1142      C1143   1.404       .  A
C1143      C1144   1.399       .  A
C1143     Br1150   1.918       .  S
C1144      C1145   1.409       .  A
C1144      H1149   1.084   1_545  S
C1145      C1146   1.418       .  A
C1146     Br1147   1.921       .  S
C1151      C1152   1.410       .  A
C1151      C1156   1.393       .  A
C1151      H1158   1.083       .  S
C1152      C1153   1.418       .  A
C1153      C1154   1.405       .  A
C1153     Br1160   1.920       .  S
C1154      C1155   1.404       .  A
C1154      H1159   1.084       .  S
C1155      C1156   1.407       .  A
C1156     Br1157   1.923       .  S
C1161      C1162   1.404       .  A
C1161      C1166   1.398       .  A
C1161      H1168   1.084       .  S
C1162      C1163   1.416       .  A
C1163      C1164   1.407       .  A
C1163     Br1170   1.919       .  S
C1164      C1165   1.403       .  A
C1164      H1169   1.084       .  S
C1165      C1166   1.410       .  A
C1166     Br1167   1.919       .  S
C1171      C1172   1.409       .  A
C1171      C1176   1.399       .  A
C1171      H1178   1.083       .  S
C1172      C1173   1.415       .  A
C1173      C1174   1.402       .  A
C1173     Br1180   1.921       .  S
C1174      C1175   1.404       .  A
C1174      H1179   1.084       .  S
C1175      C1176   1.403       .  A
C1176     Br1177   1.918       .  S
C1181      C1182   1.405       .  A
C1181      C1186   1.409       .  A
C1181      H1188   1.083       .  S
C1182      C1183   1.405       .  A
C1183      C1184   1.393       .  A
C1183     Br1190   1.921       .  S
C1184      C1185   1.407       .  A
C1184      H1189   1.083       .  S
C1185      C1186   1.415       .  A
C1186     Br1187   1.918       .  S
C1191      C1192   1.401       .  A
C1191      C1196   1.404   1_556  A
C1191      H1198   1.084       .  S
C1192      C1193   1.406   1_556  A
C1193      C1194   1.400       .  A
C1193     Br1200   1.919       .  S
C1194      C1195   1.410       .  A
C1194      H1199   1.083       .  S
C1195      C1196   1.421       .  A
C1196     Br1197   1.921       .  S
C1201      C1202   1.408       .  A
C1201      C1206   1.401       .  A
C1201      H1208   1.084       .  S
C1202      C1203   1.405       .  A
C1203      C1204   1.395       .  A
C1203     Br1210   1.920       .  S
C1204      C1205   1.405       .  A
C1204      H1209   1.083       .  S
C1205      C1206   1.403       .  A
C1206     Br1207   1.917       .  S
C1211      C1212   1.407       .  A
C1211      C1216   1.401       .  A
C1211      H1218   1.083       .  S
C1212      C1213   1.416       .  A
C1213      C1214   1.404       .  A
C1213     Br1220   1.916       .  S
C1214      C1215   1.407       .  A
C1214      H1219   1.083       .  S
C1215      C1216   1.415       .  A
C1216     Br1217   1.921       .  S
C1221      C1222   1.404       .  A
C1221      C1226   1.395       .  A
C1221      H1228   1.084       .  S
C1222      C1223   1.408       .  A
C1223      C1224   1.403       .  A
C1223     Br1230   1.917       .  S
C1224      C1225   1.406       .  A
C1224      H1229   1.084       .  S
C1225      C1226   1.405       .  A
C1226     Br1227   1.919       .  S
C1231      C1232   1.404       .  A
C1231      C1236   1.402       .  A
C1231      H1238   1.084       .  S
C1232      C1233   1.407       .  A
C1233      C1234   1.407       .  A
C1233     Br1240   1.917       .  S
C1234      C1235   1.411       .  A
C1234      H1239   1.083       .  S
C1235      C1236   1.415       .  A
C1236     Br1237   1.921       .  S
C1241      C1242   1.407       .  A
C1241      C1246   1.400       .  A
C1241      H1248   1.083       .  S
C1242      C1243   1.411       .  A
C1243      C1244   1.397       .  A
C1243     Br1250   1.922       .  S
C1244      C1245   1.407       .  A
C1244      H1249   1.083       .  S
C1245      C1246   1.409       .  A
C1246     Br1247   1.915   1_556  S
C1251      C1252   1.411       .  A
C1251      C1256   1.403       .  A
C1251      H1258   1.083       .  S
C1252      C1253   1.419       .  A
C1253      C1254   1.391       .  A
C1253     Br1260   1.926   1_455  S
C1254      C1255   1.401       .  A
C1254      H1259   1.085       .  S
C1255      C1256   1.406       .  A
C1256     Br1257   1.918       .  S
C1261      C1262   1.402       .  A
C1261      C1266   1.398       .  A
C1261      H1268   1.085       .  S
C1262      C1263   1.408       .  A
C1263      C1264   1.402       .  A
C1263     Br1270   1.918       .  S
C1264      C1265   1.409       .  A
C1264      H1269   1.084       .  S
C1265      C1266   1.417       .  A
C1266     Br1267   1.923       .  S
C1271      C1272   1.404       .  A
C1271      C1276   1.404       .  A
C1271      H1278   1.084       .  S
C1272      C1273   1.411   1_655  A
C1273      C1274   1.397       .  A
C1273     Br1280   1.922       .  S
C1274      C1275   1.406       .  A
C1274      H1279   1.084       .  S
C1275      C1276   1.417   1_455  A
C1276     Br1277   1.921       .  S
C1281      C1282   1.406       .  A
C1281      C1286   1.395       .  A
C1281      H1288   1.084       .  S
C1282      C1283   1.411   1_655  A
C1283      C1284   1.402       .  A
C1283     Br1290   1.919       .  S
C1284      C1285   1.407   1_455  A
C1284      H1289   1.084       .  S
C1285      C1286   1.410       .  A
C1286     Br1287   1.922       .  S
C1291      C1292   1.405       .  A
C1291      C1296   1.403       .  A
C1291      H1298   1.084       .  S
C1292      C1293   1.411       .  A
C1293      C1294   1.401       .  A
C1293     Br1300   1.921       .  S
C1294      C1295   1.405       .  A
C1294      H1299   1.084       .  S
C1295      C1296   1.412       .  A
C1296     Br1297   1.919       .  S
C1301      C1302   1.410       .  A
C1301      C1306   1.405       .  A
C1301      H1308   1.082       .  S
C1302      C1303   1.412       .  A
C1303      C1304   1.400       .  A
C1303     Br1310   1.920       .  S
C1304      C1305   1.402       .  A
C1304      H1309   1.083       .  S
C1305      C1306   1.406       .  A
C1306     Br1307   1.918       .  S
C1311      C1312   1.401       .  A
C1311      C1316   1.403       .  A
C1311      H1318   1.083       .  S
C1312      C1313   1.408       .  A
C1313      C1314   1.397       .  A
C1313     Br1320   1.921       .  S
C1314      C1315   1.407       .  A
C1314      H1319   1.083       .  S
C1315      C1316   1.420       .  A
C1316     Br1317   1.921       .  S
C1321      C1322   1.410       .  A
C1321      C1326   1.403       .  A
C1321      H1328   1.084       .  S
C1322      C1323   1.420       .  A
C1323      C1324   1.392       .  A
C1323     Br1330   1.926       .  S
C1324      C1325   1.400       .  A
C1324      H1329   1.085       .  S
C1325      C1326   1.406       .  A
C1326     Br1327   1.917       .  S
C1331      C1332   1.406       .  A
C1331      C1336   1.391       .  A
C1331      H1338   1.084       .  S
C1332      C1333   1.414       .  A
C1333      C1334   1.403       .  A
C1333     Br1340   1.918       .  S
C1334      C1335   1.402       .  A
C1334      H1339   1.083       .  S
C1335      C1336   1.403       .  A
C1336     Br1337   1.921       .  S
C1341      C1342   1.404       .  A
C1341      C1346   1.403       .  A
C1341      H1348   1.083       .  S
C1342      C1343   1.404       .  A
C1343      C1344   1.394       .  A
C1343     Br1350   1.920       .  S
C1344      C1345   1.407       .  A
C1344      H1349   1.083       .  S
C1345      C1346   1.410       .  A
C1346     Br1347   1.917       .  S
C1351      C1352   1.408       .  A
C1351      C1356   1.399       .  A
C1351      H1358   1.083       .  S
C1352      C1353   1.413       .  A
C1353      C1354   1.399       .  A
C1353     Br1360   1.921       .  S
C1354      C1355   1.403       .  A
C1354      H1359   1.084       .  S
C1355      C1356   1.404       .  A
C1356     Br1357   1.918       .  S
C1361      C1362   1.404       .  A
C1361      C1366   1.397       .  A
C1361      H1368   1.083       .  S
C1362      C1363   1.418       .  A
C1363      C1364   1.401       .  A
C1363     Br1370   1.922       .  S
C1364      C1365   1.398       .  A
C1364      H1369   1.082       .  S
C1365      C1366   1.409       .  A
C1366     Br1367   1.917       .  S
C1371      C1372   1.404       .  A
C1371      C1376   1.399       .  A
C1371      H1378   1.084       .  S
C1372      C1373   1.416       .  A
C1373      C1374   1.405       .  A
C1373     Br1380   1.920       .  S
C1374      C1375   1.402       .  A
C1374      H1379   1.083       .  S
C1375      C1376   1.412       .  A
C1376     Br1377   1.919       .  S
C1381      C1382   1.398       .  A
C1381      C1386   1.390       .  A
C1381      H1388   1.085       .  S
C1382      C1383   1.407       .  A
C1383      C1384   1.405       .  A
C1383     Br1390   1.917       .  S
C1384      C1385   1.410       .  A
C1384      H1389   1.083       .  S
C1385      C1386   1.422       .  A
C1386     Br1387   1.928       .  S
C1391      C1392   1.402       .  A
C1391      C1396   1.403       .  A
C1391      H1398   1.084       .  S
C1392      C1393   1.404       .  A
C1393      C1394   1.399       .  A
C1393     Br1400   1.918       .  S
C1394      C1395   1.408       .  A
C1394      H1399   1.083       .  S
C1395      C1396   1.418       .  A
C1396     Br1397   1.922       .  S
C1401      C1402   1.404       .  A
C1401      C1406   1.404       .  A
C1401      H1408   1.083       .  S
C1402      C1403   1.404       .  A
C1403      C1404   1.393       .  A
C1403     Br1410   1.921       .  S
C1404      C1405   1.405       .  A
C1404      H1409   1.084       .  S
C1405      C1406   1.411       .  A
C1406     Br1407   1.919       .  S
C1411      C1412   1.412       .  A
C1411      C1416   1.403       .  A
C1411      H1418   1.084       .  S
C1412      C1413   1.417       .  A
C1413      C1414   1.397       .  A
C1413     Br1420   1.923       .  S
C1414      C1415   1.401       .  A
C1414      H1419   1.085       .  S
C1415      C1416   1.406       .  A
C1416     Br1417   1.918       .  S
C1421      C1422   1.407       .  A
C1421      C1426   1.391       .  A
C1421      H1428   1.083       .  S
C1422      C1423   1.410       .  A
C1423      C1424   1.404       .  A
C1423     Br1430   1.916       .  S
C1424      C1425   1.405       .  A
C1424      H1429   1.083       .  S
C1425      C1426   1.402       .  A
C1426     Br1427   1.920       .  S
C1431      C1432   1.406       .  A
C1431      C1436   1.391       .  A
C1431      H1438   1.083       .  S
C1432      C1433   1.412       .  A
C1433      C1434   1.406       .  A
C1433     Br1440   1.915       .  S
C1434      C1435   1.404       .  A
C1434      H1439   1.083       .  S
C1435      C1436   1.404       .  A
C1436     Br1437   1.918       .  S
C1441      C1442   1.408       .  A
C1441      C1446   1.405       .  A
C1441      H1448   1.083       .  S
C1442      C1443   1.416       .  A
C1443      C1444   1.402       .  A
C1443     Br1450   1.921       .  S
C1444      C1445   1.407       .  A
C1444      H1449   1.083       .  S
C1445      C1446   1.416       .  A
C1446     Br1447   1.921       .  S
C1451      C1452   1.408   1_545  A
C1451      C1456   1.401   1_545  A
C1451      H1458   1.082       .  S
C1452      C1453   1.418       .  A
C1453      C1454   1.396       .  A
C1453     Br1460   1.923       .  S
C1454      C1455   1.398       .  A
C1454      H1459   1.083       .  S
C1455      C1456   1.405       .  A
C1456     Br1457   1.918   1_565  S
C1461      C1462   1.407       .  A
C1461      C1466   1.390       .  A
C1461      H1468   1.084       .  S
C1462      C1463   1.416       .  A
C1463      C1464   1.403       .  A
C1463     Br1470   1.920       .  S
C1464      C1465   1.402       .  A
C1464      H1469   1.084       .  S
C1465      C1466   1.403       .  A
C1466     Br1467   1.920       .  S
C1471      C1472   1.406       .  A
C1471      C1476   1.400       .  A
C1471      H1478   1.083   1_545  S
C1472      C1473   1.416       .  A
C1473      C1474   1.401       .  A
C1473     Br1480   1.923       .  S
C1474      C1475   1.407       .  A
C1474      H1479   1.083       .  S
C1475      C1476   1.413       .  A
C1476     Br1477   1.921   1_545  S
C1481      C1482   1.409       .  A
C1481      C1486   1.404       .  A
C1481      H1488   1.085       .  S
C1482      C1483   1.407       .  A
C1483      C1484   1.393       .  A
C1483     Br1490   1.920       .  S
C1484      C1485   1.402       .  A
C1484      H1489   1.085       .  S
C1485      C1486   1.405       .  A
C1486     Br1487   1.917       .  S
C1491      C1492   1.399       .  A
C1491      C1496   1.401   1_565  A
C1491      H1498   1.084   1_566  S
C1492      C1493   1.404       .  A
C1493      C1494   1.399       .  A
C1493     Br1500   1.918       .  S
C1494      C1495   1.410       .  A
C1494      H1499   1.083       .  S
C1495      C1496   1.421   1_565  A
C1496     Br1497   1.923       .  S
C1501      C1502   1.399       .  A
C1501      C1506   1.402       .  A
C1501      H1508   1.083       .  S
C1502      C1503   1.407       .  A
C1503      C1504   1.394       .  A
C1503     Br1510   1.919       .  S
C1504      C1505   1.406       .  A
C1504      H1509   1.082       .  S
C1505      C1506   1.419       .  A
C1506     Br1507   1.922       .  S
C1511      C1512   1.400       .  A
C1511      C1516   1.392       .  A
C1511      H1518   1.086       .  S
C1512      C1513   1.405       .  A
C1513      C1514   1.404       .  A
C1513     Br1520   1.918       .  S
C1514      C1515   1.408       .  A
C1514      H1519   1.084       .  S
C1515      C1516   1.406       .  A
C1516     Br1517   1.919       .  S
C1521      C1522   1.397       .  A
C1521      C1526   1.393       .  A
C1521      H1528   1.085       .  S
C1522      C1523   1.408       .  A
C1523      C1524   1.406       .  A
C1523     Br1530   1.916       .  S
C1524      C1525   1.410       .  A
C1524      H1529   1.084       .  S
C1525      C1526   1.423       .  A
C1526     Br1527   1.927   1_455  S
C1531      C1532   1.403       .  A
C1531      C1536   1.401       .  A
C1531      H1538   1.084       .  S
C1532      C1533   1.406       .  A
C1533      C1534   1.403       .  A
C1533     Br1540   1.918       .  S
C1534      C1535   1.409       .  A
C1534      H1539   1.083       .  S
C1535      C1536   1.415       .  A
C1536     Br1537   1.921   1_455  S
C1541      C1542   1.407       .  A
C1541      C1546   1.402       .  A
C1541      H1548   1.083       .  S
C1542      C1543   1.407       .  A
C1543      C1544   1.397       .  A
C1543     Br1550   1.920       .  S
C1544      C1545   1.404       .  A
C1544      H1549   1.083       .  S
C1545      C1546   1.405       .  A
C1546     Br1547   1.917       .  S
C1551      C1552   1.406       .  A
C1551      C1556   1.403       .  A
C1551      H1558   1.083       .  S
C1552      C1553   1.413       .  A
C1553      C1554   1.401       .  A
C1553     Br1560   1.920       .  S
C1554      C1555   1.404       .  A
C1554      H1559   1.083       .  S
C1555      C1556   1.411       .  A
C1556     Br1557   1.920       .  S
C1561      C1562   1.403       .  A
C1561      C1566   1.401       .  A
C1561      H1568   1.084       .  S
C1562      C1563   1.406       .  A
C1563      C1564   1.393       .  A
C1563     Br1570   1.921       .  S
C1564      C1565   1.405       .  A
C1564      H1569   1.084       .  S
C1565      C1566   1.412       .  A
C1566     Br1567   1.920       .  S
C1571      C1572   1.410       .  A
C1571      C1576   1.394       .  A
C1571      H1578   1.083       .  S
C1572      C1573   1.414       .  A
C1573      C1574   1.403       .  A
C1573     Br1580   1.918       .  S
C1574      C1575   1.405       .  A
C1574      H1579   1.084       .  S
C1575      C1576   1.406       .  A
C1576     Br1577   1.921       .  S
C1581      C1582   1.401       .  A
C1581      C1586   1.399       .  A
C1581      H1588   1.084       .  S
C1582      C1583   1.416       .  A
C1583      C1584   1.412       .  A
C1583     Br1590   1.918       .  S
C1584      C1585   1.405       .  A
C1584      H1589   1.083       .  S
C1585      C1586   1.414       .  A
C1586     Br1587   1.918       .  S
C1591      C1592   1.399       .  A
C1591      C1596   1.399       .  A
C1591      H1598   1.085       .  S
C1592      C1593   1.410       .  A
C1593      C1594   1.400       .  A
C1593     Br1600   1.921       .  S
C1594      C1595   1.407       .  A
C1594      H1599   1.084       .  S
C1595      C1596   1.424       .  A
C1596     Br1597   1.925       .  S
C1601      C1602   1.408       .  A
C1601      C1606   1.395       .  A
C1601      H1608   1.084       .  S
C1602      C1603   1.406       .  A
C1603      C1604   1.403       .  A
C1603     Br1610   1.918       .  S
C1604      C1605   1.411       .  A
C1604      H1609   1.083       .  S
C1605      C1606   1.408       .  A
C1606     Br1607   1.922       .  S
C1611      C1612   1.408       .  A
C1611      C1616   1.393       .  A
C1611      H1618   1.084       .  S
C1612      C1613   1.412       .  A
C1613      C1614   1.400       .  A
C1613     Br1620   1.919       .  S
C1614      C1615   1.404       .  A
C1614      H1619   1.084       .  S
C1615      C1616   1.407       .  A
C1616     Br1617   1.922       .  S
C1621      C1622   1.404       .  A
C1621      C1626   1.397       .  A
C1621      H1628   1.083       .  S
C1622      C1623   1.416       .  A
C1623      C1624   1.409   1_565  A
C1623     Br1630   1.920   1_565  S
C1624      C1625   1.409   1_545  A
C1624      H1629   1.084       .  S
C1625      C1626   1.418       .  A
C1626     Br1627   1.924       .  S
C1631      C1632   1.404       .  A
C1631      C1636   1.400   1_554  A
C1631      H1638   1.082       .  S
C1632      C1633   1.415       .  A
C1633      C1634   1.398       .  A
C1633     Br1640   1.922       .  S
C1634      C1635   1.399   1_554  A
C1634      H1639   1.083       .  S
C1635      C1636   1.408       .  A
C1636     Br1637   1.918       .  S
C1641      C1642   1.396       .  A
C1641      C1646   1.399       .  A
C1641      H1648   1.084       .  S
C1642      C1643   1.410       .  A
C1643      C1644   1.398       .  A
C1643     Br1650   1.918       .  S
C1644      C1645   1.405       .  A
C1644      H1649   1.083       .  S
C1645      C1646   1.422       .  A
C1646     Br1647   1.924       .  S
C1651      C1652   1.401       .  A
C1651      C1656   1.399       .  A
C1651      H1658   1.085       .  S
C1652      C1653   1.407       .  A
C1653      C1654   1.402       .  A
C1653     Br1660   1.918   1_545  S
C1654      C1655   1.408       .  A
C1654      H1659   1.084   1_545  S
C1655      C1656   1.416       .  A
C1656     Br1657   1.922       .  S
C1661      C1662   1.400       .  A
C1661      C1666   1.399       .  A
C1661      H1668   1.084       .  S
C1662      C1663   1.414       .  A
C1663      C1664   1.409       .  A
C1663     Br1670   1.918       .  S
C1664      C1665   1.404       .  A
C1664      H1669   1.083       .  S
C1665      C1666   1.414       .  A
C1666     Br1667   1.919       .  S
C1671      C1672   1.405       .  A
C1671      C1676   1.394       .  A
C1671      H1678   1.084       .  S
C1672      C1673   1.412       .  A
C1673      C1674   1.403       .  A
C1673     Br1680   1.919       .  S
C1674      C1675   1.405       .  A
C1674      H1679   1.083       .  S
C1675      C1676   1.407       .  A
C1676     Br1677   1.920       .  S
C1681      C1682   1.405       .  A
C1681      C1686   1.401       .  A
C1681      H1688   1.083       .  S
C1682      C1683   1.415       .  A
C1683      C1684   1.405       .  A
C1683     Br1690   1.920       .  S
C1684      C1685   1.408       .  A
C1684      H1689   1.083       .  S
C1685      C1686   1.419       .  A
C1686     Br1687   1.924       .  S
C1691      C1692   1.402       .  A
C1691      C1696   1.401       .  A
C1691      H1698   1.084       .  S
C1692      C1693   1.403       .  A
C1693      C1694   1.398       .  A
C1693     Br1700   1.918       .  S
C1694      C1695   1.410       .  A
C1694      H1699   1.083       .  S
C1695      C1696   1.413       .  A
C1696     Br1697   1.918       .  S
C1701      C1702   1.399       .  A
C1701      C1706   1.392       .  A
C1701      H1708   1.084       .  S
C1702      C1703   1.401       .  A
C1703      C1704   1.401       .  A
C1703     Br1710   1.917       .  S
C1704      C1705   1.411       .  A
C1704      H1709   1.083       .  S
C1705      C1706   1.411       .  A
C1706     Br1707   1.922       .  S
C1711      C1712   1.397       .  A
C1711      C1716   1.399       .  A
C1711      H1718   1.081       .  S
C1712      C1713   1.410       .  A
C1713      C1714   1.397       .  A
C1713     Br1720   1.917       .  S
C1714      C1715   1.403       .  A
C1714      H1719   1.082       .  S
C1715      C1716   1.419       .  A
C1716     Br1717   1.923       .  S
C1721      C1722   1.405       .  A
C1721      C1726   1.400       .  A
C1721      H1728   1.085       .  S
C1722      C1723   1.407       .  A
C1723      C1724   1.407       .  A
C1723     Br1730   1.918       .  S
C1724      C1725   1.413       .  A
C1724      H1729   1.083       .  S
C1725      C1726   1.415       .  A
C1726     Br1727   1.923       .  S
C1731      C1732   1.410       .  A
C1731      C1736   1.400       .  A
C1731      H1738   1.083       .  S
C1732      C1733   1.417       .  A
C1733      C1734   1.397       .  A
C1733     Br1740   1.923       .  S
C1734      C1735   1.403       .  A
C1734      H1739   1.084       .  S
C1735      C1736   1.407       .  A
C1736     Br1737   1.919       .  S
C1741      C1742   1.402       .  A
C1741      C1746   1.403       .  A
C1741      H1748   1.083       .  S
C1742      C1743   1.403       .  A
C1743      C1744   1.390       .  A
C1743     Br1750   1.921       .  S
C1744      C1745   1.407       .  A
C1744      H1749   1.084       .  S
C1745      C1746   1.415       .  A
C1746     Br1747   1.921       .  S
C1751      C1752   1.398       .  A
C1751      C1756   1.399       .  A
C1751      H1758   1.083       .  S
C1752      C1753   1.405       .  A
C1753      C1754   1.400       .  A
C1753     Br1760   1.918   1_655  S
C1754      C1755   1.409       .  A
C1754      H1759   1.083   1_655  S
C1755      C1756   1.421       .  A
C1756     Br1757   1.923       .  S
C1761      C1762   1.403       .  A
C1761      C1766   1.400   1_655  A
C1761      H1768   1.084   1_655  S
C1762      C1763   1.412       .  A
C1763      C1764   1.402       .  A
C1763     Br1770   1.920       .  S
C1764      C1765   1.405       .  A
C1764      H1769   1.084       .  S
C1765      C1766   1.414   1_655  A
C1766     Br1767   1.921       .  S
C1771      C1772   1.414       .  A
C1771      C1776   1.396       .  A
C1771      H1778   1.083       .  S
C1772      C1773   1.416       .  A
C1773      C1774   1.397       .  A
C1773     Br1780   1.916       .  S
C1774      C1775   1.399       .  A
C1774      H1779   1.084       .  S
C1775      C1776   1.400       .  A
C1776     Br1777   1.914       .  S
C1781      C1782   1.401       .  A
C1781      C1786   1.399       .  A
C1781      H1788   1.084       .  S
C1782      C1783   1.414       .  A
C1783      C1784   1.405       .  A
C1783     Br1790   1.915       .  S
C1784      C1785   1.401       .  A
C1784      H1789   1.084       .  S
C1785      C1786   1.412       .  A
C1786     Br1787   1.916       .  S
C1791      C1792   1.401       .  A
C1791      C1796   1.398       .  A
C1791      H1798   1.083       .  S
C1792      C1793   1.403       .  A
C1793      C1794   1.402       .  A
C1793     Br1800   1.917   1_455  S
C1794      C1795   1.412       .  A
C1794      H1799   1.082   1_455  S
C1795      C1796   1.418       .  A
C1796     Br1797   1.923       .  S
