geometry optimzed in LAMMPS
_audit_creation_date              2020-11-30 
_audit_creation_method            'lammps2cif' 
_symmetry_space_group_name_H-M    'P1' 
_symmetry_Int_Tables_number       1 
_symmetry_cell_setting            triclinic 
loop_ 
_symmetry_equiv_pos_as_xyz 
  x,y,z 
_cell_length_a                    60.12695082 
_cell_length_b                    60.320115597271894 
_cell_length_c                    29.52076888090675 
_cell_angle_alpha                 89.75513277400209 
_cell_angle_beta                  89.7096966009042 
_cell_angle_gamma                 90.21025090229354 
loop_ 
_atom_site_label 
_atom_site_type_symbol 
_atom_site_fract_x 
_atom_site_fract_y 
_atom_site_fract_z 
_atom_site_charge 
O1          O  0.88936503  0.62055663  0.07862103    -0.57000
C2          C  0.88387433  0.67504412  0.00555966     0.75600
O3          O  0.88523941  0.61848228  0.91892126    -0.58100
C4          C  0.88805728  0.59967316  0.07642012     0.75600
C5          C  0.83078553  0.62424406  0.99932423     0.78000
Cd6        Cd  0.87870620  0.62814055  0.99978348     1.37500
O7          O  0.89670242  0.66232808  0.02747264    -0.57000
O8          O  0.84100422  0.63779131  0.02435874    -0.55800
C9          C  0.90545282  0.62448345  0.91832365     0.78000
O10         O  0.84285569  0.61229268  0.97394101    -0.58200
O11         O  0.86883027  0.66583381  0.98240776    -0.56600
O12         O  0.88446371  0.59178540  0.03742881    -0.56600
O13         O  0.91363236  0.62964448  0.95621780    -0.55800
O14         O  0.89592268  0.85302010  0.96815267    -0.57000
C15         C  0.89276294  0.91607693  0.92312363     0.75600
O16         O  0.84625174  0.90476210  0.02569163    -0.58100
C17         C  0.88580662  0.84112203  0.99723443     0.75600
C18         C  0.90992275  0.89148912  0.07895402     0.78000
Cd19       Cd  0.88219088  0.88820618  0.99990501     1.37500
O20         O  0.89292984  0.89515601  0.92099699    -0.57000
O21         O  0.91728238  0.88464720  0.04133353    -0.55800
C22         C  0.83444475  0.89338704  0.99886309     0.78000
O23         O  0.89046317  0.89950933  0.07875482    -0.58200
O24         O  0.89017394  0.92418279  0.96231964    -0.56600
O25         O  0.87385291  0.85118823  0.02587250    -0.56600
O26         O  0.84480816  0.87974242  0.97428794    -0.55800
O27         O  0.60375196  0.85674396  0.01095604    -0.57000
C28         C  0.61423644  0.91756456  0.06833629     0.75600
O29         O  0.65484157  0.90858171  0.95387376    -0.58100
C30         C  0.61453644  0.84505741  0.98284739     0.75600
C31         C  0.58884453  0.89968932  0.90882999     0.78000
Cd32       Cd  0.61910012  0.89264104  0.98426895     1.37500
O33         O  0.60962967  0.89712933  0.06550339    -0.57000
O34         O  0.58195083  0.89398896  0.94774428    -0.55800
C35         C  0.66692925  0.89623887  0.97840846     0.78000
O36         O  0.60920314  0.90511373  0.90644446    -0.58200
O37         O  0.61865648  0.92719069  0.03111132    -0.56600
O38         O  0.62760840  0.85548554  0.95663430    -0.56600
O39         O  0.65672618  0.88251925  0.00354503    -0.55800
O40         O  0.61186992  0.59328994  0.95418751    -0.57000
C41         C  0.61266979  0.67814473  0.98376192     0.75600
O42         O  0.60833016  0.61962714  0.06778570    -0.58100
C43         C  0.60723253  0.59974671  0.91453212     0.75600
C44         C  0.66342406  0.62570826  0.98789889     0.78000
Cd45       Cd  0.61576175  0.63043870  0.98790367     1.37500
O46         O  0.60023140  0.66607182  0.95941075    -0.57000
O47         O  0.65337540  0.63786439  0.95970698    -0.55800
C48         C  0.58777968  0.62413127  0.06734326     0.78000
O49         O  0.65129995  0.61564872  0.01673379    -0.58200
O50         O  0.62630367  0.66802119  0.00879706    -0.56600
O51         O  0.60438485  0.62042173  0.90976853    -0.56600
O52         O  0.57995561  0.62980621  0.02930493    -0.55800
C53         C  0.66663107  0.50618281  0.56719734     0.87300
C54         C  0.65242110  0.48469800  0.56453129    -0.52900
C55         C  0.63149469  0.48640243  0.58283442     0.10200
C56         C  0.62652486  0.50974270  0.60126822     0.21200
C57         C  0.65202010  0.52365367  0.54364841    -0.53600
C58         C  0.63121729  0.52557033  0.56157109     0.10300
C59         C  0.66602533  0.51227103  0.61786342    -0.53200
C60         C  0.64508026  0.51458988  0.63572846     0.10900
H61         H  0.65753744  0.46971733  0.54767845     0.15400
H62         H  0.60950137  0.51175297  0.61525950     0.01200
H63         H  0.65750535  0.53342366  0.51468816     0.15700
H64         H  0.68102472  0.51442107  0.63755701     0.15500
C65         C  0.82368812  0.51148054  0.42925155     0.87300
C66         C  0.83616828  0.48917646  0.42825110    -0.52900
C67         C  0.85771681  0.49082111  0.41397705     0.10200
C68         C  0.86490104  0.51446311  0.40102792     0.21200
C69         C  0.83840067  0.52706795  0.45751193    -0.53600
C70         C  0.85988753  0.52868825  0.44277346     0.10300
C71         C  0.82631229  0.52020276  0.38003113    -0.53200
C72         C  0.84790290  0.52211212  0.36553767     0.10900
H73         H  0.82879013  0.47350296  0.43861735     0.15400
H74         H  0.88249179  0.51571566  0.38962414     0.01200
H75         H  0.83226254  0.53587619  0.48691662     0.15700
H76         H  0.81266489  0.52355776  0.35740714     0.15500
C77         C  0.50023888  0.67106490  0.43510776     0.87300
C78         C  0.47847585  0.65707554  0.43329746    -0.52900
C79         C  0.48078158  0.63677452  0.41322221     0.10200
C80         C  0.50461256  0.63226550  0.39658183     0.21200
C81         C  0.51671001  0.65536443  0.45886745    -0.53600
C82         C  0.51944460  0.63514057  0.43849921     0.10300
C83         C  0.50837847  0.67208973  0.38553154    -0.53200
C84         C  0.51083307  0.65184343  0.36548705     0.10900
H85         H  0.46291430  0.66165407  0.44903936     0.15400
H86         H  0.50603263  0.61595576  0.37993899     0.01200
H87         H  0.52557572  0.66008029  0.48922925     0.15700
H88         H  0.51213301  0.68752646  0.36801509     0.15500
C89         C  0.49894319  0.82993121  0.56311724     0.87300
C90         C  0.47635143  0.84189486  0.56150103    -0.52900
C91         C  0.47735126  0.86389839  0.57196157     0.10200
C92         C  0.50083849  0.87212957  0.58395082     0.21200
C93         C  0.51477957  0.84382162  0.53298323    -0.53600
C94         C  0.51585072  0.86579544  0.54382922     0.10300
C95         C  0.50731218  0.83477296  0.61188507    -0.53200
C96         C  0.50838002  0.85687243  0.62268462     0.10900
H97         H  0.46079145  0.83357115  0.55385742     0.15400
H98         H  0.50175813  0.89005597  0.59198304     0.01200
H99         H  0.52576399  0.83645432  0.50795291     0.15700
H100        H  0.51230176  0.82235589  0.63623707     0.15500
C101        C  0.99394191  0.67210528  0.55242040     0.87300
C102        C  0.01583687  0.65904116  0.54821805    -0.52900
C103        C  0.01553615  0.63886904  0.56938496     0.10200
C104        C  0.99318423  0.63315196  0.59235860     0.21200
C105        C  0.97637655  0.65570974  0.53341815    -0.53600
C106        C  0.97591257  0.63545276  0.55455036     0.10300
C107        C  0.98863963  0.67275719  0.60354173    -0.53200
C108        C  0.98798358  0.65247119  0.62447286     0.10900
H109        H  0.03015996  0.66492104  0.52910614     0.15400
H110        H  0.99303922  0.61657374  0.60871176     0.01200
H111        H  0.96529465  0.65908170  0.50554792     0.15700
H112        H  0.98402899  0.68792004  0.62088369     0.15500
C113        C  0.99244718  0.83423530  0.44080521     0.87300
C114        C  0.01461604  0.84686070  0.44620155    -0.52900
C115        C  0.01429193  0.86851833  0.43174511     0.10200
C116        C  0.99163460  0.87524374  0.41131213     0.21200
C117        C  0.97509657  0.84928363  0.46478735    -0.53600
C118        C  0.97463840  0.87063022  0.44903716     0.10300
C119        C  0.98642846  0.83669156  0.39036343    -0.53200
C120        C  0.98614983  0.85804149  0.37471413     0.10900
H121        H  0.02918898  0.83904703  0.46044960     0.15400
H122        H  0.99058218  0.89252620  0.39863145     0.01200
H123        H  0.96382315  0.84403077  0.49130173     0.15700
H124        H  0.98136183  0.82280484  0.36948510     0.15500
C125        C  0.67043259  0.99603141  0.43864291     0.87300
C126        C  0.65569294  0.01693548  0.44039210    -0.52900
C127        C  0.63408606  0.01366337  0.42708356     0.10200
C128        C  0.62935106  0.98971466  0.41218325     0.21200
C129        C  0.65753259  0.97835193  0.46628960    -0.53600
C130        C  0.63613025  0.97504824  0.45238056     0.10300
C131        C  0.66800262  0.98813451  0.38880116    -0.53200
C132        C  0.64655020  0.98483400  0.37519987     0.10900
H133        H  0.66191592  0.03300188  0.45092600     0.15400
H134        H  0.61215806  0.98657763  0.40065408     0.01200
H135        H  0.66514557  0.96843315  0.49271025     0.15700
H136        H  0.68150326  0.98538039  0.36525506     0.15500
C137        C  0.82916837  0.00368005  0.56904382     0.87300
C138        C  0.84273153  0.02560787  0.56807595    -0.52900
C139        C  0.86352354  0.02384107  0.58585601     0.10200
C140        C  0.86926087  0.00055530  0.60284677     0.21200
C141        C  0.84456333  0.98710623  0.54424380    -0.53600
C142        C  0.86538846  0.98509462  0.56246753     0.10300
C143        C  0.82979332  0.99640359  0.61930705    -0.53200
C144        C  0.85077256  0.99457698  0.63701047     0.10900
H145        H  0.83730935  0.04118207  0.55375514     0.15400
H146        H  0.88640780  0.99958049  0.61629943     0.01200
H147        H  0.83931698  0.97759957  0.51505263     0.15700
H148        H  0.81483567  0.99326849  0.63900830     0.15500
O149        O  0.09668540  0.39094974  0.90681709    -0.57000
C150        C  0.10029580  0.33954236  0.99558117     0.75600
O151        O  0.14005639  0.40135690  0.02082603    -0.58100
C152        C  0.09916859  0.41178208  0.90492422     0.75600
C153        C  0.07629379  0.39560434  0.06506588     0.78000
Cd154      Cd  0.10474968  0.38683992  0.98835312     1.37500
O155        O  0.08685813  0.35040636  0.97113972    -0.57000
O156        O  0.06861209  0.38875889  0.02781907    -0.55800
C157        C  0.15236921  0.39011858  0.99457830     0.78000
O158        O  0.09661502  0.40123016  0.06472338    -0.58200
O159        O  0.11546214  0.35063520  0.01451374    -0.56600
O160        O  0.10195383  0.42135964  0.94257139    -0.56600
O161        O  0.14247047  0.37788893  0.96634132    -0.55800
O162        O  0.10302722  0.11887227  0.94676596    -0.57000
C163        C  0.15658538  0.12060900  0.02839150     0.75600
O164        O  0.09240633  0.16191018  0.05322405    -0.58100
C165        C  0.08231229  0.12256727  0.94705399     0.75600
C166        C  0.10070585  0.09923611  0.10797684     0.78000
Cd167      Cd  0.10906026  0.12640988  0.02839665     1.37500
O168        O  0.14408386  0.10796583  0.00540005    -0.57000
O169        O  0.10390953  0.09073843  0.06934278    -0.55800
C170        C  0.10559277  0.17370465  0.02949520     0.78000
O171        O  0.09871764  0.12012792  0.10858507    -0.58200
O172        O  0.14695362  0.13581372  0.05023250    -0.56600
O173        O  0.07358017  0.12503216  0.98583124    -0.56600
O174        O  0.12046753  0.16341981  0.00783755    -0.55800
O175        O  0.38458504  0.10803014  0.94244141    -0.57000
C176        C  0.37338400  0.16306233  0.01185957     0.75600
O177        O  0.33637829  0.10104394  0.05504557    -0.58100
C178        C  0.37909571  0.08777922  0.94241308     0.75600
C179        C  0.40285134  0.10972617  0.09346812     0.78000
Cd180      Cd  0.37159016  0.11569818  0.02000121     1.37500
O181        O  0.38262004  0.15071492  0.98279489    -0.57000
O182        O  0.40919874  0.11534327  0.05416221    -0.55800
C183        C  0.32380896  0.11099415  0.02726174     0.78000
O184        O  0.38241049  0.10494696  0.09752874    -0.58200
O185        O  0.36375292  0.15330843  0.04455126    -0.56600
O186        O  0.37204428  0.07998779  0.97974378    -0.56600
O187        O  0.33349336  0.12260125  0.99730506    -0.55800
O188        O  0.38058973  0.38420489  0.05930494    -0.57000
C189        C  0.36781218  0.32950954  0.98898511     0.75600
O190        O  0.33063040  0.39135378  0.95580567    -0.58100
C191        C  0.37783091  0.40497823  0.05795851     0.75600
C192        C  0.39419686  0.38019773  0.90188252     0.78000
Cd193      Cd  0.36676691  0.37678697  0.98240635     1.37500
O194        O  0.38052042  0.34165128  0.01261617    -0.57000
O195        O  0.39939365  0.36868727  0.93600694    -0.55800
C196        C  0.31926587  0.38137835  0.98603247     0.78000
O197        O  0.37704515  0.39220617  0.90579403    -0.58200
O198        O  0.35461662  0.33947141  0.96258227    -0.56600
O199        O  0.37261366  0.41293770  0.01978796    -0.56600
O200        O  0.32997074  0.36936543  0.01333359    -0.55800
C201        C  0.16917152  0.49898867  0.55120659     0.87300
C202        C  0.16506551  0.48953488  0.59959445    -0.52900
C203        C  0.14310972  0.48807668  0.61207043     0.10200
C204        C  0.12723878  0.49606914  0.57479921     0.21200
C205        C  0.15516397  0.48340929  0.52128460    -0.53600
C206        C  0.13330947  0.48194729  0.53353157     0.10300
C207        C  0.15663990  0.52133720  0.55100865    -0.53200
C208        C  0.13463648  0.51989632  0.56318500     0.10900
H209        H  0.17782694  0.48266915  0.62092083     0.15400
H210        H  0.10945785  0.49478107  0.58454207     0.01200
H211        H  0.16217510  0.47352437  0.49412622     0.15700
H212        H  0.16451759  0.53678469  0.54096989     0.15500
C213        C  0.32898605  0.49463518  0.41900453     0.87300
C214        C  0.32992465  0.48772042  0.36853636    -0.52900
C215        C  0.35087263  0.48538740  0.35120689     0.10200
C216        C  0.36925445  0.49156626  0.38495513     0.21200
C217        C  0.34405431  0.47764546  0.44317650    -0.53600
C218        C  0.36508569  0.47580813  0.42529173     0.10300
C219        C  0.34235503  0.51653273  0.41955005    -0.53200
C220        C  0.36339415  0.51494339  0.40209271     0.10900
H221        H  0.31559939  0.48505348  0.34728343     0.15400
H222        H  0.38636430  0.49072363  0.37107337     0.01200
H223        H  0.33820501  0.46734712  0.47107158     0.15700
H224        H  0.33588919  0.53196730  0.43286496     0.15500
C225        C  0.49540321  0.16607940  0.44706885     0.87300
C226        C  0.48729809  0.16510118  0.39758339    -0.52900
C227        C  0.48608941  0.14421320  0.37977687     0.10200
C228        C  0.49346955  0.12603092  0.41304648     0.21200
C229        C  0.47898400  0.15006790  0.47196443    -0.53600
C230        C  0.47808298  0.12909636  0.45411761     0.10300
C231        C  0.51769619  0.15366422  0.44717293    -0.53200
C232        C  0.51679348  0.13280243  0.42948236     0.10900
H233        H  0.48224476  0.17971310  0.37882593     0.15400
H234        H  0.49256369  0.10914918  0.39848876     0.01200
H235        H  0.46792782  0.15480967  0.49926544     0.15700
H236        H  0.53295253  0.16088562  0.46009226     0.15500
C237        C  0.49627495  0.32911351  0.55371675     0.87300
C238        C  0.48601994  0.33071132  0.60157171    -0.52900
C239        C  0.48279995  0.35185537  0.61655079     0.10200
C240        C  0.49056396  0.36967983  0.58286550     0.21200
C241        C  0.48110412  0.34358051  0.52357194    -0.53600
C242        C  0.47796385  0.36469526  0.53905964     0.10300
C243        C  0.51803665  0.34304582  0.55694137    -0.53200
C244        C  0.51500158  0.36427602  0.57241985     0.10900
H245        H  0.48077917  0.31628227  0.62097666     0.15400
H246        H  0.48771095  0.38674351  0.59524191     0.01200
H247        H  0.47327392  0.33756809  0.49294466     0.15700
H248        H  0.53438743  0.33730772  0.54724496     0.15500
C249        C  0.16457564  0.01149393  0.46135806     0.87300
C250        C  0.16103307  0.02092107  0.41287753    -0.52900
C251        C  0.13924406  0.02208005  0.39987977     0.10200
C252        C  0.12295031  0.01291619  0.43560739     0.21200
C253        C  0.14941145  0.02602898  0.49129551    -0.53600
C254        C  0.12764560  0.02701076  0.47768632     0.10300
C255        C  0.15301528  0.98869706  0.45972452    -0.53200
C256        C  0.13129995  0.98945738  0.44693984     0.10900
H257        H  0.17414398  0.02598788  0.38990945     0.15400
H258        H  0.10540653  0.01344740  0.42445301     0.01200
H259        H  0.15578199  0.03589851  0.51907213     0.15700
H260        H  0.16118752  0.97323845  0.46825476     0.15500
C261        C  0.32515884  0.00371013  0.58323926     0.87300
C262        C  0.32821441  0.00949959  0.63381063    -0.52900
C263        C  0.34964558  0.00919298  0.64833512     0.10200
C264        C  0.36644648  0.00271484  0.61132243     0.21200
C265        C  0.34098395  0.01987657  0.55824448    -0.53600
C266        C  0.36263155  0.01963416  0.57275204     0.10300
C267        C  0.33632624  0.98078355  0.57913661    -0.53200
C268        C  0.35806211  0.98016322  0.59311518     0.10900
H269        H  0.31511986  0.01401111  0.65717104     0.15400
H270        H  0.38380500  0.00212949  0.62311318     0.01200
H271        H  0.33520671  0.03113237  0.53207105     0.15700
H272        H  0.32744906  0.96620196  0.56762273     0.15500
C273        C  0.99947355  0.18080256  0.58197172     0.87300
C274        C  0.00374975  0.18030945  0.63384277    -0.52900
C275        C  0.00617210  0.15955665  0.65202284     0.10200
C276        C  0.00395220  0.14099430  0.61685961     0.21200
C277        C  0.01895977  0.16731097  0.56205501    -0.53600
C278        C  0.02135948  0.14656159  0.58026358     0.10300
C279        C  0.97891704  0.16564521  0.57647877    -0.53200
C280        C  0.98129924  0.14466717  0.59394634     0.10900
H281        H  0.00512202  0.19467216  0.65534270     0.15400
H282        H  0.00596454  0.12424384  0.63151450     0.01200
H283        H  0.02999107  0.17369448  0.53581954     0.15700
H284        H  0.96384929  0.17102193  0.55970089     0.15500
C285        C  0.99570646  0.33657995  0.43134524     0.87300
C286        C  0.00240775  0.33778941  0.38051883    -0.52900
C287        C  0.00507647  0.35886291  0.36420835     0.10200
C288        C  0.00036488  0.37686116  0.39910337     0.21200
C289        C  0.01358555  0.35065568  0.45543154    -0.53600
C290        C  0.01605487  0.37167080  0.43828061     0.10300
C291        C  0.97430363  0.35088238  0.43326003    -0.53200
C292        C  0.97689623  0.37221705  0.41747107     0.10900
H293        H  0.00467124  0.32354280  0.35878768     0.15400
H294        H  0.00263405  0.39366056  0.38457700     0.01200
H295        H  0.02399253  0.34417150  0.48232076     0.15700
H296        H  0.95847949  0.34475421  0.44586838     0.15500
C297        C  0.99106557  0.22702866  0.49075370    -0.13500
C298        C  0.99499096  0.24669429  0.51493263     0.16900
C299        C  0.99963704  0.24480416  0.56162321     0.03100
C300        C  0.00050633  0.22389454  0.58277989    -0.12000
C301        C  0.99711727  0.20393551  0.55874599    -0.03100
C302        C  0.99226696  0.20597225  0.51173961     0.02400
C303        C  0.99408639  0.26903092  0.49160744     0.09200
N304        N  0.00455389  0.26400890  0.58804123     0.65600
H305        H  0.00467318  0.22390884  0.61812297     0.18500
N306        N  0.98851534  0.18679319  0.48445013     0.76100
H307        H  0.98699641  0.22795432  0.45510346     0.10000
C308        C  0.00644627  0.27372723  0.45191093     0.03700
C309        C  0.00637397  0.29518360  0.43284321    -0.05000
C310        C  0.99394265  0.31277726  0.45182060    -0.23400
C311        C  0.98182219  0.30794868  0.49227066     0.13000
C312        C  0.98144549  0.28628331  0.51044620    -0.12500
N313        N  0.02025079  0.25720364  0.43174516     0.64600
H314        H  0.01720317  0.29805426  0.40411332     0.12500
N315        N  0.97055588  0.32492541  0.51693990     0.61300
H316        H  0.97167951  0.28312670  0.54073260     0.08600
O317        O  0.00455140  0.17848203  0.46273438    -0.40200
O318        O  0.96889176  0.18175221  0.47343687    -0.39400
O319        O  0.99173442  0.26945494  0.62006392    -0.39400
O320        O  0.02324850  0.27339720  0.58396652    -0.37100
O321        O  0.94991834  0.32322758  0.52429027    -0.38000
O322        O  0.98171839  0.33905160  0.53863141    -0.34100
O323        O  0.01523241  0.24937220  0.39354865    -0.35500
O324        O  0.03913345  0.25322380  0.44829095    -0.39800
C325        C  0.06494229  0.10077029  0.57861696    -0.13500
C326        C  0.06682919  0.09661077  0.53214924     0.16900
C327        C  0.05428708  0.10930366  0.50148080     0.03100
C328        C  0.04041212  0.12622584  0.51758555    -0.12000
C329        C  0.03823684  0.13028420  0.56427165    -0.03100
C330        C  0.05074320  0.11733005  0.59493261     0.02400
C331        C  0.08216210  0.07901320  0.51660846     0.09200
N332        N  0.05489705  0.10464174  0.45410299     0.65600
H333        H  0.03053351  0.13557368  0.49362517     0.18500
N334        N  0.04989939  0.12127209  0.64260764     0.76100
H335        H  0.07466183  0.09113138  0.60238506     0.10000
C336        C  0.10497710  0.08336572  0.51067225     0.03700
C337        C  0.11953094  0.06610171  0.49965302    -0.05000
C338        C  0.11175535  0.04425654  0.49408026    -0.23400
C339        C  0.08874444  0.03997118  0.50008618     0.13000
C340        C  0.07424040  0.05732815  0.51132094    -0.12500
N341        N  0.11352893  0.10536160  0.51525061     0.64600
H342        H  0.13694193  0.06998454  0.49413442     0.12500
N343        N  0.07995459  0.01797241  0.49789509     0.61300
H344        H  0.05675231  0.05377658  0.51689674     0.08600
O345        O  0.06066487  0.13736032  0.65878210    -0.40200
O346        O  0.04279228  0.10624461  0.66887075    -0.39400
O347        O  0.04015378  0.09234614  0.43704781    -0.39400
O348        O  0.06787538  0.11543027  0.42847016    -0.37100
O349        O  0.06776964  0.01268183  0.46494275    -0.38000
O350        O  0.07878889  0.00668645  0.53390506    -0.34100
O351        O  0.12453108  0.11053543  0.54993487    -0.35500
O352        O  0.11255702  0.11867833  0.48225118    -0.39800
C353        C  0.27350015  0.99836278  0.50488178    -0.13500
C354        C  0.25657422  0.00817236  0.53071207     0.16900
C355        C  0.26193220  0.01658884  0.57363980     0.03100
C356        C  0.28373444  0.01501534  0.59004741    -0.12000
C357        C  0.30102185  0.00489693  0.56481813    -0.03100
C358        C  0.29547375  0.99689942  0.52099142     0.02400
C359        C  0.23335686  0.00928444  0.51282712     0.09200
N360        N  0.24555636  0.02774257  0.60036228     0.65600
H361        H  0.28675917  0.02286182  0.62206584     0.18500
N362        N  0.31186005  0.98711290  0.49213547     0.76100
H363        H  0.26964170  0.99181144  0.47170286     0.10000
C364        C  0.22843804  0.02052801  0.47226806     0.03700
C365        C  0.20653106  0.02110296  0.45598415    -0.05000
C366        C  0.18875521  0.01056840  0.47927245    -0.23400
C367        C  0.19388493  0.99968545  0.52081253     0.13000
C368        C  0.21591068  0.99895627  0.53662466    -0.12500
N369        N  0.24541777  0.03238543  0.44816220     0.64600
H370        H  0.20381413  0.03071805  0.42574011     0.12500
N371        N  0.17697122  0.98913248  0.54758029     0.61300
H372        H  0.21940283  0.99026006  0.56797739     0.08600
O373        O  0.32502444  0.99944903  0.47004663    -0.40200
O374        O  0.30971169  0.96709035  0.48067839    -0.39400
O375        O  0.23969402  0.01979179  0.63820447    -0.39400
O376        O  0.23933763  0.04695398  0.58920205    -0.37100
O377        O  0.17669411  0.96826087  0.55081388    -0.38000
O378        O  0.16610048  0.00043005  0.57586915    -0.34100
O379        O  0.25153280  0.02587940  0.40950764    -0.35500
O380        O  0.25186317  0.05101623  0.46240211    -0.39800
C381        C  0.45090013  0.07447261  0.49143016    -0.13500
C382        C  0.42840149  0.08043656  0.49407435     0.16900
C383        C  0.42230509  0.10231810  0.48269673     0.03100
C384        C  0.43869795  0.11786211  0.47010878    -0.12000
C385        C  0.46129270  0.11203271  0.46817693    -0.03100
C386        C  0.46727288  0.08990148  0.47810683     0.02400
C387        C  0.41195496  0.06424283  0.51286357     0.09200
N388        N  0.39963789  0.10923934  0.48538425     0.65600
H389        H  0.43372872  0.13465410  0.46199041     0.18500
N390        N  0.48999566  0.08306634  0.47742887     0.76100
H391        H  0.45583295  0.05777444  0.50048874     0.10000
C392        C  0.39561823  0.05395704  0.48603742     0.03700
C393        C  0.38000645  0.03945760  0.50614123    -0.05000
C394        C  0.38028121  0.03471642  0.55299540    -0.23400
C395        C  0.39703858  0.04498494  0.57952949     0.13000
C396        C  0.41252755  0.05943823  0.55921710    -0.12500
N397        N  0.39509020  0.05752310  0.43816269     0.64600
H398        H  0.36779206  0.03155849  0.48465433     0.12500
N399        N  0.39789024  0.04250536  0.62760154     0.61300
H400        H  0.42489847  0.06744183  0.58022796     0.08600
O401        O  0.49739600  0.07289788  0.44329691    -0.40200
O402        O  0.50033479  0.08163733  0.51438135    -0.39400
O403        O  0.39137146  0.11425244  0.52333334    -0.39400
O404        O  0.38942229  0.11437364  0.44963170    -0.37100
O405        O  0.39138930  0.05848990  0.65160671    -0.38000
O406        O  0.41186129  0.02922526  0.64419224    -0.34100
O407        O  0.40923212  0.04806839  0.41319588    -0.35500
O408        O  0.37836586  0.06658468  0.42039115    -0.39800
C409        C  0.47951133  0.26912348  0.51991828    -0.13500
C410        C  0.49999786  0.25876286  0.51211212     0.16900
C411        C  0.51953495  0.27159910  0.51639225     0.03100
C412        C  0.51831600  0.29410079  0.52898295    -0.12000
C413        C  0.49774465  0.30465262  0.53757400    -0.03100
C414        C  0.47815362  0.29155890  0.53241957     0.02400
C415        C  0.50038519  0.23486264  0.49781615     0.09200
N416        N  0.54089890  0.26181196  0.50963358     0.65600
H417        H  0.53384218  0.30283002  0.53278914     0.18500
N418        N  0.45650903  0.30077018  0.53924323     0.76100
H419        H  0.46426317  0.25972798  0.51581272     0.10000
C420        C  0.49011594  0.21809266  0.52408083     0.03700
C421        C  0.48874324  0.19621441  0.50786901    -0.05000
C422        C  0.49763174  0.19011572  0.46531307    -0.23400
C423        C  0.50913409  0.20690524  0.44029109     0.13000
C424        C  0.50994742  0.22889464  0.45620136    -0.12500
N425        N  0.48166215  0.22286849  0.56829371     0.64600
H426        H  0.48118076  0.18405318  0.52998980     0.12500
N427        N  0.51990106  0.20210092  0.39813876     0.61300
H428        H  0.51797334  0.24148491  0.43549374     0.08600
O429        O  0.44489174  0.30563454  0.50515377    -0.40200
O430        O  0.44702518  0.29831815  0.57716375    -0.39400
O431        O  0.55228143  0.26695046  0.47510329    -0.39400
O432        O  0.54984408  0.25113269  0.54150583    -0.37100
O433        O  0.51284359  0.21095190  0.36218291    -0.38000
O434        O  0.53899663  0.19350185  0.39827077    -0.34100
O435        O  0.46096939  0.22237280  0.57556171    -0.35500
O436        O  0.49486484  0.22379921  0.60132786    -0.39800
C437        C  0.41011233  0.43094078  0.42964168    -0.13500
C438        C  0.41235257  0.42770391  0.47625882     0.16900
C439        C  0.39935369  0.44038276  0.50616684     0.03100
C440        C  0.38413305  0.45589540  0.48902109    -0.12000
C441        C  0.38174386  0.45926951  0.44204556    -0.03100
C442        C  0.39512845  0.44650895  0.41224712     0.02400
C443        C  0.42889334  0.41142860  0.49273840     0.09200
N444        N  0.40156802  0.43773043  0.55402107     0.65600
H445        H  0.37433171  0.46555315  0.51262282     0.18500
N446        N  0.39312716  0.44808251  0.36418305     0.76100
H447        H  0.42007140  0.42119613  0.40642705     0.10000
C448        C  0.42374153  0.38868716  0.49615922     0.03700
C449        C  0.44014464  0.37354570  0.50947949    -0.05000
C450        C  0.46187459  0.38069045  0.51913285    -0.23400
C451        C  0.46712071  0.40346722  0.51454648     0.13000
C452        C  0.45058650  0.41859470  0.50185982    -0.12500
N453        N  0.40183133  0.38080804  0.48669790     0.64600
H454        H  0.43570117  0.35621983  0.51350928     0.12500
N455        N  0.48938670  0.41133991  0.52042993     0.61300
H456        H  0.45482917  0.43597951  0.49794948     0.08600
O457        O  0.38146448  0.43379379  0.34409709    -0.40200
O458        O  0.40816827  0.45808132  0.34210344    -0.39400
O459        O  0.41491691  0.44990200  0.57554330    -0.39400
O460        O  0.38854099  0.42494603  0.57536356    -0.37100
O461        O  0.50412903  0.40634814  0.49169796    -0.38000
O462        O  0.49340999  0.42615587  0.54934549    -0.34100
O463        O  0.39759741  0.37266633  0.44838754    -0.35500
O464        O  0.38791572  0.37865921  0.51856011    -0.39800
C465        C  0.10311597  0.42792830  0.51021732    -0.13500
C466        C  0.08445087  0.43529757  0.48630228     0.16900
C467        C  0.08267508  0.45805183  0.47524714     0.03100
C468        C  0.09918404  0.47298500  0.48946924    -0.12000
C469        C  0.11760956  0.46559282  0.51410492    -0.03100
C470        C  0.11973245  0.44279620  0.52371684     0.02400
C471        C  0.06705891  0.41890047  0.47375279     0.09200
N472        N  0.06382325  0.46638045  0.45132175     0.65600
H473        H  0.09741634  0.49046787  0.48188836     0.18500
N474        N  0.13847592  0.43456070  0.54800745     0.76100
H475        H  0.10478366  0.41048800  0.51845535     0.10000
C476        C  0.06290773  0.41346267  0.42819770     0.03700
C477        C  0.04609926  0.39822286  0.41779375    -0.05000
C478        C  0.03360411  0.38766421  0.45202353    -0.23400
C479        C  0.03806768  0.39267525  0.49776213     0.13000
C480        C  0.05477832  0.40818908  0.50814160    -0.12500
N481        N  0.07650136  0.42219900  0.39236697     0.64600
H482        H  0.04332823  0.39402885  0.38260450     0.12500
N483        N  0.02547072  0.38268140  0.53385741     0.61300
H484        H  0.05794127  0.41224280  0.54326103     0.08600
O485        O  0.15539672  0.42815711  0.52634617    -0.40200
O486        O  0.13641929  0.42949571  0.58932051    -0.39400
O487        O  0.04550003  0.46851861  0.47183717    -0.39400
O488        O  0.06654271  0.47556102  0.41318773    -0.37100
O489        O  0.00449674  0.38344543  0.53381718    -0.38000
O490        O  0.03533744  0.37399868  0.56708315    -0.34100
O491        O  0.09663702  0.41649656  0.38963324    -0.35500
O492        O  0.06754650  0.43179505  0.35909108    -0.39800
C493        C  0.22060682  0.50709368  0.47264034    -0.13500
C494        C  0.23840398  0.49993590  0.49965837     0.16900
C495        C  0.23378730  0.49444771  0.54532192     0.03100
C496        C  0.21185931  0.49519618  0.56215295    -0.12000
C497        C  0.19362919  0.50080545  0.53430235    -0.03100
C498        C  0.19859903  0.50749996  0.48912642     0.02400
C499        C  0.26145364  0.49825598  0.47951461     0.09200
N500        N  0.25102725  0.48707462  0.57488670     0.65600
H501        H  0.20961668  0.49089762  0.59728335     0.18500
N502        N  0.18142487  0.51446924  0.45894425     0.76100
H503        H  0.22375455  0.51235627  0.43807021     0.10000
C504        C  0.26524327  0.48732533  0.43801248     0.03700
C505        C  0.28674235  0.48626642  0.41934595    -0.05000
C506        C  0.30539258  0.49595629  0.44067793    -0.23400
C507        C  0.30163253  0.50603121  0.48350197     0.13000
C508        C  0.27990833  0.50764890  0.50152560    -0.12500
N509        N  0.24751669  0.47632167  0.41494923     0.64600
H510        H  0.28848505  0.47669814  0.38883668     0.12500
N511        N  0.31970153  0.51440270  0.50981214     0.61300
H512        H  0.27754487  0.51624517  0.53328685     0.08600
O513        O  0.17513278  0.50155209  0.42799365    -0.40200
O514        O  0.17685485  0.53481893  0.45593095    -0.39400
O515        O  0.25684043  0.49908367  0.60770070    -0.39400
O516        O  0.25723508  0.46713013  0.57352238    -0.37100
O517        O  0.32076468  0.53485394  0.51841034    -0.38000
O518        O  0.33149209  0.50108020  0.53226779    -0.34100
O519        O  0.24163594  0.48302345  0.37627602    -0.35500
O520        O  0.24033519  0.45796910  0.42969739    -0.39800
C521        C  0.42573815  0.39233653  0.79213390    -0.13500
C522        C  0.42961765  0.37067143  0.77640240     0.16900
C523        C  0.42135136  0.35258161  0.80198568     0.03100
C524        C  0.41041469  0.35629258  0.84312880    -0.12000
C525        C  0.40659548  0.37783428  0.85887974    -0.03100
C526        C  0.41406655  0.39602935  0.83282756     0.02400
C527        C  0.44370445  0.36685528  0.73544915     0.09200
N528        N  0.42334605  0.33033419  0.78588916     0.65600
H529        H  0.40421529  0.34218068  0.86232226     0.18500
N530        N  0.41120226  0.41819060  0.84866221     0.76100
H531        H  0.43243775  0.40641121  0.77363736     0.10000
C532        C  0.43922973  0.37713347  0.69346034     0.03700
C533        C  0.45254275  0.37241130  0.65560926    -0.05000
C534        C  0.47022496  0.35731648  0.65845673    -0.23400
C535        C  0.47504680  0.34742448  0.70059214     0.13000
C536        C  0.46197616  0.35243370  0.73858716    -0.12500
N537        N  0.42061807  0.39155783  0.68811517     0.64600
H538        H  0.44849460  0.38000573  0.62336048     0.12500
N539        N  0.49340888  0.33264138  0.70564623     0.61300
H540        H  0.46613548  0.34495309  0.77086861     0.08600
O541        O  0.39857352  0.43129129  0.82762135    -0.40200
O542        O  0.42372724  0.42557984  0.87931380    -0.39400
O543        O  0.43376150  0.31612394  0.80892391    -0.39400
O544        O  0.41227713  0.32421723  0.75192331    -0.37100
O545        O  0.51238650  0.34036065  0.71468495    -0.38000
O546        O  0.48979986  0.31217271  0.71087739    -0.34100
O547        O  0.42380743  0.41214401  0.68369933    -0.35500
O548        O  0.40180174  0.38346968  0.67892020    -0.39800
C549        C  0.35025888  0.44543968  0.25133477    -0.13500
C550        C  0.36793877  0.45361480  0.22492520     0.16900
C551        C  0.37894839  0.47310268  0.23866941     0.03100
C552        C  0.37278899  0.48351311  0.27920743    -0.12000
C553        C  0.35550238  0.47503624  0.30637452    -0.03100
C554        C  0.34401935  0.45579708  0.29179312     0.02400
C555        C  0.37394750  0.44195127  0.18235555     0.09200
N556        N  0.39682581  0.48217110  0.21241739     0.65600
H557        H  0.38184399  0.49810030  0.28985407     0.18500
N558        N  0.32711422  0.44556115  0.31910621     0.76100
H559        H  0.34141255  0.43066704  0.24078404     0.10000
C560        C  0.37987661  0.41935186  0.18250063     0.03700
C561        C  0.38243477  0.40802717  0.14149302    -0.05000
C562        C  0.37893345  0.41869800  0.09968705    -0.23400
C563        C  0.37385622  0.44160564  0.09965658     0.13000
C564        C  0.37152170  0.45295263  0.14076155    -0.12500
N565        N  0.38283138  0.40753070  0.22410784     0.64600
H566        H  0.38636303  0.39051646  0.14260866     0.12500
N567        N  0.36966197  0.45336556  0.05848339     0.61300
H568        H  0.36659424  0.47021131  0.14016108     0.08600
O569        O  0.30721274  0.44556304  0.30573660    -0.40200
O570        O  0.33256096  0.43322576  0.35182195    -0.39400
O571        O  0.39368700  0.49937276  0.18886909    -0.39400
O572        O  0.41637004  0.47530347  0.21864449    -0.37100
O573        O  0.35014593  0.45402031  0.04300617    -0.38000
O574        O  0.38424178  0.46642881  0.04279066    -0.34100
O575        O  0.36889145  0.39287842  0.23584935    -0.35500
O576        O  0.40110499  0.40894232  0.24473213    -0.39800
C577        C  0.37090673  0.01822244  0.76849194    -0.13500
C578        C  0.36674019  0.04096024  0.77390647     0.16900
C579        C  0.35731872  0.05293362  0.73770888     0.03100
C580        C  0.35177945  0.04202285  0.69764580    -0.12000
C581        C  0.35579780  0.01930743  0.69223234    -0.03100
C582        C  0.36520097  0.00716652  0.72833479     0.02400
C583        C  0.37157861  0.05179668  0.81793146     0.09200
N584        N  0.35285587  0.07611306  0.74137663     0.65600
H585        H  0.34445619  0.05145176  0.67018557     0.18500
N586        N  0.36770664  0.98357525  0.72616361     0.76100
H587        H  0.37803071  0.00888730  0.79625907     0.10000
C588        C  0.36228649  0.04371466  0.85878982     0.03700
C589        C  0.36642648  0.05477488  0.89949315    -0.05000
C590        C  0.37914438  0.07435470  0.90037234    -0.23400
C591        C  0.38911353  0.08196958  0.85966402     0.13000
C592        C  0.38546245  0.07053148  0.81913599    -0.12500
N593        N  0.34728624  0.02525670  0.85906074     0.64600
H594        H  0.35836779  0.04875842  0.93009927     0.12500
N595        N  0.40269015  0.10145983  0.85863430     0.61300
H596        H  0.39326742  0.07653281  0.78826163     0.08600
O597        O  0.38441726  0.97445979  0.74395067    -0.40200
O598        O  0.35166724  0.97163396  0.71332120    -0.39400
O599        O  0.36523868  0.08987195  0.72096796    -0.39400
O600        O  0.33450646  0.08245622  0.75756365    -0.37100
O601        O  0.42331127  0.09989318  0.86559977    -0.38000
O602        O  0.39485252  0.11937591  0.84345177    -0.34100
O603        O  0.35203830  0.00799763  0.88123721    -0.35500
O604        O  0.32797971  0.02747218  0.84313055    -0.39800
C605        C  0.44602603  0.14224622  0.27992309    -0.13500
C606        C  0.45516970  0.12519465  0.25371414     0.16900
C607        C  0.47536313  0.11556552  0.26736154     0.03100
C608        C  0.48531356  0.12240098  0.30774509    -0.12000
C609        C  0.47587484  0.13891443  0.33505094    -0.03100
C610        C  0.45594306  0.14900515  0.32040346     0.02400
C611        C  0.44311789  0.11774304  0.21267908     0.09200
N612        N  0.48547727  0.09836640  0.24137940     0.65600
H613        H  0.50081525  0.11416406  0.31830981     0.18500
N614        N  0.44462791  0.16492617  0.34769894     0.76100
H615        H  0.43061466  0.15002536  0.26942115     0.10000
C616        C  0.42105080  0.10991839  0.21584692     0.03700
C617        C  0.40873439  0.10617230  0.17652623    -0.05000
C618        C  0.41791092  0.11015051  0.13335757    -0.23400
C619        C  0.44049261  0.11682788  0.13019944     0.13000
C620        C  0.45282683  0.12054913  0.16973794    -0.12500
N621        N  0.41072720  0.10623352  0.25896337     0.64600
H622        H  0.39156750  0.10088844  0.18004588     0.12500
N623        N  0.45088500  0.12095339  0.08733969     0.61300
H624        H  0.46974671  0.12666436  0.16684179     0.08600
O625        O  0.43261075  0.15840687  0.38031949    -0.40200
O626        O  0.44322283  0.18474525  0.33418722    -0.39400
O627        O  0.50245233  0.10265880  0.21754942    -0.39400
O628        O  0.48001225  0.07843757  0.24852655    -0.37100
O629        O  0.45220493  0.14053694  0.07233169    -0.38000
O630        O  0.46199695  0.10581825  0.06856962    -0.34100
O631        O  0.39603397  0.11945815  0.27298509    -0.35500
O632        O  0.41362406  0.08805609  0.27935182    -0.39800
C633        C  0.38303692  0.22219094  0.97006926    -0.13500
C634        C  0.37206616  0.23420519  0.00384584     0.16900
C635        C  0.36164899  0.22295017  0.03992703     0.03100
C636        C  0.36253692  0.19984112  0.04208872    -0.12000
C637        C  0.37347689  0.18756332  0.00829636    -0.03100
C638        C  0.38376938  0.19901371  0.97183612     0.02400
C639        C  0.37107836  0.25850265  0.00025848     0.09200
N640        N  0.34947146  0.23475709  0.07374136     0.65600
H641        H  0.35430204  0.19149960  0.07012994     0.18500
N642        N  0.39468932  0.18745028  0.93597831     0.76100
H643        H  0.39089885  0.23086897  0.94199071     0.10000
C644        C  0.38593309  0.27203234  0.02426596     0.03700
C645        C  0.38447511  0.29508163  0.02037531    -0.05000
C646        C  0.36851028  0.30499514  0.99221572    -0.23400
C647        C  0.35375534  0.29120492  0.96772927     0.13000
C648        C  0.35512322  0.26815612  0.97218861    -0.12500
N649        N  0.40296699  0.26253705  0.05169217     0.64600
H650        H  0.39612298  0.30522037  0.03910464     0.12500
N651        N  0.33740375  0.30020044  0.93796413     0.61300
H652        H  0.34372515  0.25770678  0.95348927     0.08600
O653        O  0.41553827  0.18519628  0.93667965    -0.40200
O654        O  0.38410526  0.18279383  0.90044180    -0.39400
O655        O  0.32889327  0.23786607  0.06864535    -0.39400
O656        O  0.35817729  0.23827740  0.11184162    -0.37100
O657        O  0.34180321  0.30219514  0.89630210    -0.38000
O658        O  0.31752965  0.30189879  0.95137140    -0.34100
O659        O  0.42155121  0.25794246  0.03412679    -0.35500
O660        O  0.40084747  0.26236282  0.09422776    -0.39800
C661        C  0.01551347  0.13283660  0.76818439    -0.13500
C662        C  0.03317964  0.14569841  0.78465478     0.16900
C663        C  0.04054536  0.16411480  0.75909726     0.03100
C664        C  0.03085841  0.16886861  0.71711264    -0.12000
C665        C  0.01364856  0.15561952  0.69966067    -0.03100
C666        C  0.00560349  0.13770344  0.72625316     0.02400
C667        C  0.04509139  0.13864411  0.82636586     0.09200
N668        N  0.05804861  0.17803918  0.77525785     0.65600
H669        H  0.03746685  0.18256828  0.69730892     0.18500
N670        N  0.98719426  0.12451664  0.71162358     0.76100
H671        H  0.00962226  0.11871108  0.78768076     0.10000
C672        C  0.03468150  0.13837389  0.86921546     0.03700
C673        C  0.04669850  0.13184919  0.90771198    -0.05000
C674        C  0.06922444  0.12563024  0.90458120    -0.23400
C675        C  0.07933461  0.12523720  0.86114858     0.13000
C676        C  0.06725561  0.13169880  0.82279566    -0.12500
N677        N  0.01231976  0.14590256  0.87452764     0.64600
H678        H  0.03855248  0.13257231  0.94048917     0.12500
N679        N  0.10201103  0.11883340  0.85528412     0.61300
H680        H  0.07532561  0.13145189  0.78988261     0.08600
O681        O  0.98943847  0.10384912  0.70705175    -0.40200
O682        O  0.96798090  0.13284501  0.71064757    -0.39400
O683        O  0.07662216  0.17827153  0.75516843    -0.39400
O684        O  0.05391532  0.19241259  0.80503621    -0.37100
O685        O  0.10654535  0.09898006  0.84576773    -0.38000
O686        O  0.11688669  0.13353983  0.85138947    -0.34100
O687        O  0.99706646  0.13218826  0.88388882    -0.35500
O688        O  0.00846736  0.16641083  0.87708696    -0.39800
C689        C  0.11090956  0.05273121  0.19358459    -0.13500
C690        C  0.10722974  0.06376418  0.23464811     0.16900
C691        C  0.09910975  0.08565306  0.23360584     0.03100
C692        C  0.09598070  0.09648354  0.19197650    -0.12000
C693        C  0.10077059  0.08590281  0.15067953    -0.03100
C694        C  0.10786959  0.06353481  0.15186599     0.02400
C695        C  0.11463291  0.05324099  0.27771587     0.09200
N696        N  0.09423340  0.09717297  0.27467889     0.65600
H697        H  0.09032325  0.11351693  0.19213423     0.18500
N698        N  0.11372781  0.05201995  0.11134783     0.76100
H699        H  0.11744891  0.03601136  0.19389874     0.10000
C700        C  0.10593758  0.03277131  0.29289935     0.03700
C701        C  0.11440820  0.02277534  0.33220663    -0.05000
C702        C  0.13160710  0.03275897  0.35698005    -0.23400
C703        C  0.14035515  0.05327782  0.34157466     0.13000
C704        C  0.13192871  0.06317363  0.30219435    -0.12500
N705        N  0.08813074  0.02221512  0.26933773     0.64600
H706        H  0.10734474  0.00716922  0.34359356     0.12500
N707        N  0.15709242  0.06481582  0.36647101     0.61300
H708        H  0.13897238  0.07877309  0.29060265     0.08600
O709        O  0.10106337  0.03701514  0.09654184    -0.40200
O710        O  0.13311999  0.05403058  0.09524707    -0.39400
O711        O  0.10564075  0.11389623  0.28562251    -0.39400
O712        O  0.07676246  0.09251472  0.29664301    -0.37100
O713        O  0.17644796  0.06670232  0.35013357    -0.38000
O714        O  0.15157271  0.07640437  0.40015772    -0.34100
O715        O  0.09103744  0.00341009  0.25175522    -0.35500
O716        O  0.06881592  0.03027786  0.27126913    -0.39800
C717        C  0.21827759  0.13009371  0.05112389    -0.13500
C718        C  0.22764243  0.11137561  0.03088759     0.16900
C719        C  0.21371173  0.09552758  0.01065878     0.03100
C720        C  0.19065743  0.09882779  0.01004045    -0.12000
C721        C  0.18110366  0.11771807  0.02987813    -0.03100
C722        C  0.19524522  0.13336120  0.05108278     0.02400
C723        C  0.25210454  0.10951791  0.02878331     0.09200
N724        N  0.22277432  0.07594698  0.99090835     0.65600
H725        H  0.18020899  0.08645602  0.99416055     0.18500
N726        N  0.18662363  0.15281024  0.07224036     0.76100
H727        H  0.22897496  0.14240127  0.06657742     0.10000
C728        C  0.26394445  0.11833482  0.99170885     0.03700
C729        C  0.28717270  0.11813713  0.99171242    -0.05000
C730        C  0.29912187  0.10951970  0.02864241    -0.23400
C731        C  0.28713025  0.10040192  0.06571157     0.13000
C732        C  0.26376367  0.10040654  0.06534724    -0.12500
N733        N  0.25254615  0.12837986  0.95459563     0.64600
H734        H  0.29587296  0.12521836  0.96282403     0.12500
N735        N  0.29828241  0.09210268  0.10484916     0.61300
H736        H  0.25467708  0.09386768  0.09428407     0.08600
O737        O  0.18620489  0.17086117  0.05050977    -0.40200
O738        O  0.18312613  0.15282750  0.11442492    -0.39400
O739        O  0.22520175  0.05881330  0.01501961    -0.39400
O740        O  0.22469016  0.07458929  0.94843717    -0.37100
O741        O  0.30356052  0.10528495  0.13611779    -0.38000
O742        O  0.29890314  0.07148140  0.11204843    -0.34100
O743        O  0.24807387  0.14879149  0.95577425    -0.35500
O744        O  0.25026351  0.11786302  0.91805615    -0.39800
C745        C  0.04345794  0.36482888  0.26223228    -0.13500
C746        C  0.03219823  0.38084316  0.23652300     0.16900
C747        C  0.01135524  0.38848446  0.25168822     0.03100
C748        C  0.00237831  0.38047692  0.29253104    -0.12000
C749        C  0.01370576  0.36459632  0.31844543    -0.03100
C750        C  0.03441153  0.35667692  0.30289407     0.02400
C751        C  0.04188768  0.38822711  0.19261775     0.09200
N752        N  0.99948236  0.40489526  0.22665340     0.65600
H753        H  0.98662344  0.38695955  0.30447548     0.18500
N754        N  0.04698495  0.34127182  0.32916985     0.76100
H755        H  0.05938281  0.35862351  0.25063325     0.10000
C756        C  0.06276106  0.39886123  0.19024423     0.03700
C757        C  0.07302749  0.40242768  0.14809315    -0.05000
C758        C  0.06294387  0.39538355  0.10769424    -0.23400
C759        C  0.04147411  0.38566427  0.11017186     0.13000
C760        C  0.03117999  0.38233061  0.15237481    -0.12500
N761        N  0.07393165  0.40570478  0.23048311     0.64600
H762        H  0.08939234  0.41000456  0.14725635     0.12500
N763        N  0.03052799  0.37753201  0.07069811     0.61300
H764        H  0.01525389  0.37387671  0.15385048     0.08600
O765        O  0.06113460  0.34834174  0.35708235    -0.40200
O766        O  0.04667652  0.32096676  0.31909325    -0.39400
O767        O  0.98296164  0.39927489  0.20309549    -0.39400
O768        O  0.00331172  0.42517343  0.23360290    -0.37100
O769        O  0.03411462  0.35794968  0.05774056    -0.38000
O770        O  0.01427965  0.38808279  0.05460924    -0.34100
O771        O  0.09112153  0.39556114  0.24329466    -0.35500
O772        O  0.06890739  0.42393278  0.24859320    -0.39800
C773        C  0.10902076  0.45681297  0.81584791    -0.13500
C774        C  0.11058936  0.44418981  0.77612061     0.16900
C775        C  0.10606929  0.42119475  0.77852824     0.03100
C776        C  0.10051699  0.41141473  0.82037900    -0.12000
C777        C  0.10037380  0.42380176  0.86069100    -0.03100
C778        C  0.10426340  0.44690402  0.85782783     0.02400
C779        C  0.11845524  0.45526617  0.73364255     0.09200
N780        N  0.10891415  0.40719141  0.73985963     0.65600
H781        H  0.09792038  0.39363944  0.82170423     0.18500
N782        N  0.10461689  0.46045728  0.89737771     0.76100
H783        H  0.11231284  0.47448560  0.81453278     0.10000
C784        C  0.10653391  0.45423207  0.69261482     0.03700
C785        C  0.11517997  0.46457254  0.65364040    -0.05000
C786        C  0.13499518  0.47708461  0.65475861    -0.23400
C787        C  0.14657239  0.47851910  0.69626290     0.13000
C788        C  0.13848997  0.46728610  0.73465508    -0.12500
N789        N  0.08515529  0.44374528  0.69034862     0.64600
H790        H  0.10605602  0.46285544  0.62235233     0.12500
N791        N  0.16587876  0.49220976  0.70092751     0.61300
H792        H  0.14773650  0.46839671  0.76599409     0.08600
O793        O  0.08736680  0.47093070  0.90879477    -0.40200
O794        O  0.12299433  0.46526682  0.91538739    -0.39400
O795        O  0.12760530  0.40621786  0.72032490    -0.39400
O796        O  0.09403102  0.39325577  0.72987414    -0.37100
O797        O  0.16388906  0.51302679  0.70034852    -0.38000
O798        O  0.18403688  0.48371264  0.71323312    -0.34100
O799        O  0.06946106  0.45067051  0.71499435    -0.35500
O800        O  0.08091492  0.43045456  0.65858965    -0.39800
C801        C  0.08035898  0.27934350  0.99729776    -0.13500
C802        C  0.09837807  0.26908459  0.01876280     0.16900
C803        C  0.11661544  0.28199991  0.03258341     0.03100
C804        C  0.11670554  0.30478206  0.02465822    -0.12000
C805        C  0.09891162  0.31523462  0.00257725    -0.03100
C806        C  0.08051129  0.30226576  0.98889388     0.02400
C807        C  0.09940355  0.24467963  0.02163594     0.09200
N808        N  0.13535155  0.27209903  0.05425064     0.65600
H809        H  0.13103262  0.31427781  0.03555070     0.18500
N810        N  0.06207942  0.31194275  0.96587137     0.76100
H811        H  0.06646835  0.26941248  0.98570859     0.10000
C812        C  0.08479019  0.23220426  0.04913438     0.03700
C813        C  0.08706551  0.20910170  0.05157031    -0.05000
C814        C  0.10366647  0.19815824  0.02652254    -0.23400
C815        C  0.11792541  0.21085408  0.99814562     0.13000
C816        C  0.11566721  0.23382249  0.99612022    -0.12500
N817        N  0.06789278  0.24280040  0.07534192     0.64600
H818        H  0.07582025  0.19974154  0.07321224     0.12500
N819        N  0.13460979  0.20077372  0.97050112     0.61300
H820        H  0.12667436  0.24330358  0.97414816     0.08600
O821        O  0.04496868  0.31738259  0.98803650    -0.40200
O822        O  0.06128628  0.31124565  0.92319540    -0.39400
O823        O  0.15313677  0.26929040  0.03216509    -0.39400
O824        O  0.13542789  0.26992015  0.09677055    -0.37100
O825        O  0.12997071  0.19513878  0.93051890    -0.38000
O826        O  0.15464741  0.20115121  0.98297738    -0.34100
O827        O  0.04815079  0.24311518  0.06107102    -0.35500
O828        O  0.07186738  0.24834870  0.11566445    -0.39800
C829        C  0.21238200  0.40014233  0.03129943    -0.13500
C830        C  0.22394551  0.39059950  0.99504604     0.16900
C831        C  0.21207824  0.38118499  0.95902725     0.03100
C832        C  0.18887096  0.38145792  0.95953703    -0.12000
C833        C  0.17702104  0.39093691  0.99576195    -0.03100
C834        C  0.18904579  0.40038682  0.03199845     0.02400
C835        C  0.24840876  0.38946525  0.99579896     0.09200
N836        N  0.22344131  0.37077169  0.92222968     0.65600
H837        H  0.18011184  0.37403026  0.93139388     0.18500
N838        N  0.17792225  0.40952230  0.07044380     0.76100
H839        H  0.22151557  0.40714594  0.05940951     0.10000
C840        C  0.26152971  0.40505567  0.97220810     0.03700
C841        C  0.28453516  0.40197977  0.96877641    -0.05000
C842        C  0.29483525  0.38379463  0.98975087    -0.23400
C843        C  0.28160185  0.36863560  0.01499423     0.13000
C844        C  0.25855249  0.37149803  0.01735835    -0.12500
N845        N  0.25170848  0.42429898  0.95241816     0.64600
H846        H  0.29440963  0.41411102  0.95034457     0.12500
N847        N  0.29115122  0.34995660  0.03751357     0.61300
H848        H  0.24845271  0.35941070  0.03543561     0.08600
O849        O  0.17528244  0.43021843  0.07305048    -0.40200
O850        O  0.17459098  0.39757425  0.10502545    -0.39400
O851        O  0.22708083  0.35019253  0.92360981    -0.39400
O852        O  0.22660085  0.38130747  0.88573991    -0.37100
O853        O  0.29352496  0.35026757  0.07995449    -0.38000
O854        O  0.29356012  0.33197252  0.01642407    -0.34100
O855        O  0.24772935  0.44094281  0.97686827    -0.35500
O856        O  0.25042494  0.42602584  0.90991286    -0.39800
C857        C  0.89615246  0.07499351  0.62107428    -0.13500
C858        C  0.91162074  0.07707642  0.58536639     0.16900
C859        C  0.91096182  0.06136374  0.54984062     0.03100
C860        C  0.89532139  0.04405116  0.55097950    -0.12000
C861        C  0.87968027  0.04241934  0.58608350    -0.03100
C862        C  0.88002211  0.05810587  0.62123398     0.02400
C863        C  0.92917285  0.09471979  0.58716002     0.09200
N864        N  0.92561987  0.06311372  0.51167945     0.65600
H865        H  0.89507902  0.03204098  0.52376618     0.18500
N866        N  0.86409275  0.05708314  0.65727983     0.76100
H867        H  0.89665827  0.08643970  0.64921273     0.10000
C868        C  0.92409044  0.11718721  0.59577829     0.03700
C869        C  0.94122030  0.13304205  0.59819420    -0.05000
C870        C  0.96358726  0.12718952  0.59127018    -0.23400
C871        C  0.96861311  0.10469044  0.58258021     0.13000
C872        C  0.95156415  0.08878826  0.58160431    -0.12500
N873        N  0.90158076  0.12432582  0.60095159     0.64600
H874        H  0.93692948  0.15010751  0.60530902     0.12500
N875        N  0.99064954  0.09780784  0.57124993     0.61300
H876        H  0.95591367  0.07162345  0.57575617     0.08600
O877        O  0.84499837  0.06519433  0.65150259    -0.40200
O878        O  0.87031976  0.05209856  0.69676693    -0.39400
O879        O  0.93896003  0.04757605  0.50299119    -0.39400
O880        O  0.92274710  0.07832910  0.48285711    -0.37100
O881        O  0.99755745  0.10058076  0.53120604    -0.38000
O882        O  0.00057973  0.08427767  0.59677541    -0.34100
O883        O  0.89517350  0.13239492  0.63814860    -0.35500
O884        O  0.88926890  0.12586584  0.56660546    -0.39800
C885        C  0.57979867  0.04642715  0.43501844    -0.13500
C886        C  0.58661969  0.06732423  0.41956468     0.16900
C887        C  0.60876899  0.07045170  0.40536311     0.03100
C888        C  0.62392618  0.05287134  0.40825136    -0.12000
C889        C  0.61731316  0.03188407  0.42461592    -0.03100
C890        C  0.59476490  0.02871456  0.43738024     0.02400
C891        C  0.57044633  0.08575457  0.42051260     0.09200
N892        N  0.61610152  0.09141512  0.38815637     0.65600
H893        H  0.64090620  0.05560381  0.39706144     0.18500
N894        N  0.58689475  0.00811389  0.45540630     0.76100
H895        H  0.56274683  0.04394162  0.44608895     0.10000
C896        C  0.55773172  0.09116622  0.38220017     0.03700
C897        C  0.54102729  0.10712988  0.38567969    -0.05000
C898        C  0.53629978  0.11772725  0.42671038    -0.23400
C899        C  0.54965007  0.11288096  0.46474517     0.13000
C900        C  0.56652769  0.09695347  0.46129950    -0.12500
N901        N  0.56099207  0.07986162  0.34027805     0.64600
H902        H  0.53124178  0.11117874  0.35524078     0.12500
N903        N  0.54564528  0.12319624  0.50748955     0.61300
H904        H  0.57622751  0.09279754  0.49107306     0.08600
O905        O  0.57409225  0.99630873  0.43174762    -0.40200
O906        O  0.58707064  0.00527706  0.49772053    -0.39400
O907        O  0.62656908  0.10450224  0.41363498    -0.39400
O908        O  0.61562419  0.09510847  0.34607546    -0.37100
O909        O  0.53160361  0.11486661  0.53455786    -0.38000
O910        O  0.55888661  0.13789914  0.52145238    -0.34100
O911        O  0.55109396  0.06170840  0.33347319    -0.35500
O912        O  0.57011685  0.08986692  0.30743716    -0.39800
C913        C  0.72017247  0.01090925  0.51716864    -0.13500
C914        C  0.73864836  0.00436816  0.49144013     0.16900
C915        C  0.73508232  0.99583444  0.44789196     0.03100
C916        C  0.71340840  0.99358356  0.43095668    -0.12000
C917        C  0.69444196  0.99968602  0.45662509    -0.03100
C918        C  0.69833546  0.00851880  0.50058806     0.02400
C919        C  0.76141302  0.00480446  0.51151183     0.09200
N920        N  0.75346725  0.98912063  0.42040820     0.65600
H921        H  0.71203135  0.98636574  0.39786884     0.18500
N922        N  0.68029529  0.01467100  0.52959519     0.76100
H923        H  0.72266431  0.01730347  0.55102461     0.10000
C924        C  0.77361899  0.02457388  0.51612923     0.03700
C925        C  0.79509974  0.02423133  0.53489713    -0.05000
C926        C  0.80520653  0.00425584  0.54949365    -0.23400
C927        C  0.79231384  0.98451469  0.54570637     0.13000
C928        C  0.77093642  0.98498809  0.52660244    -0.12500
N929        N  0.76456430  0.04517130  0.50104092     0.64600
H930        H  0.80340306  0.03997889  0.53785464     0.12500
N931        N  0.80037573  0.96371929  0.56195444     0.61300
H932        H  0.76156347  0.96966973  0.52391045     0.08600
O933        O  0.67255966  0.00059463  0.55723967    -0.40200
O934        O  0.67632358  0.03495386  0.53591761    -0.39400
O935        O  0.75867478  0.96890502  0.41840517    -0.39400
O936        O  0.76237555  0.00281155  0.39338955    -0.37100
O937        O  0.79410396  0.95707694  0.60052588    -0.38000
O938        O  0.80748407  0.94970076  0.53382424    -0.34100
O939        O  0.75749486  0.05897347  0.52964558    -0.35500
O940        O  0.76690026  0.05097839  0.46017583    -0.39800
C941        C  0.06573377  0.90040238  0.47491529    -0.13500
C942        C  0.06737062  0.91750054  0.44259738     0.16900
C943        C  0.05204770  0.91787317  0.40672014     0.03100
C944        C  0.03544224  0.90169149  0.40400588    -0.12000
C945        C  0.03334023  0.88463691  0.43629760    -0.03100
C946        C  0.04888801  0.88415906  0.47240309     0.02400
C947        C  0.08511177  0.93478261  0.44590201     0.09200
N948        N  0.05261664  0.93510226  0.37334562     0.65600
H949        H  0.02398468  0.90286763  0.37628672     0.18500
N950        N  0.04731078  0.86813924  0.50808998     0.76100
H951        H  0.07747508  0.89976467  0.50259984     0.10000
C952        C  0.08758537  0.94810331  0.48482631     0.03700
C953        C  0.10343907  0.96522924  0.48509655    -0.05000
C954        C  0.11669293  0.96965022  0.44696861    -0.23400
C955        C  0.11509268  0.95574574  0.40900383     0.13000
C956        C  0.09943812  0.93845253  0.40878512    -0.12500
N957        N  0.07346848  0.94515695  0.52348759     0.64600
H958        H  0.10515866  0.97542490  0.51494632     0.12500
N959        N  0.12931719  0.95891694  0.37058634     0.61300
H960        H  0.09839567  0.92786614  0.37932143     0.08600
O961        O  0.03319827  0.87074389  0.53938067    -0.40200
O962        O  0.06251508  0.85395819  0.51285692    -0.39400
O963        O  0.05938757  0.93086713  0.33379832    -0.39400
O964        O  0.04254352  0.95303997  0.38080454    -0.37100
O965        O  0.14909970  0.95204966  0.37201936    -0.38000
O966        O  0.12109168  0.96453331  0.33303670    -0.34100
O967        O  0.08140976  0.93731440  0.55962520    -0.35500
O968        O  0.05458561  0.95420824  0.52424509    -0.39800
C969        C  0.92208248  0.90114300  0.48625407    -0.13500
C970        C  0.93049342  0.92244372  0.49436440     0.16900
C971        C  0.95341546  0.92646168  0.48892384     0.03100
C972        C  0.96745547  0.90937617  0.47429221    -0.12000
C973        C  0.95909086  0.88800343  0.46579509    -0.03100
C974        C  0.93610770  0.88393251  0.47221986     0.02400
C975        C  0.91516136  0.93982685  0.51094350     0.09200
N976        N  0.96268455  0.94771094  0.49887178     0.65600
H977        H  0.98507078  0.91276228  0.47022364     0.18500
N978        N  0.92656943  0.86267647  0.46328414     0.76100
H979        H  0.90447391  0.89787408  0.49084040     0.10000
C980        C  0.90203442  0.95240098  0.48107544     0.03700
C981        C  0.88595892  0.96702416  0.49827140    -0.05000
C982        C  0.88263769  0.96934667  0.54522943    -0.23400
C983        C  0.89610725  0.95674529  0.57499460     0.13000
C984        C  0.91222204  0.94233096  0.55760290    -0.12500
N985        N  0.90480637  0.95035341  0.43320686     0.64600
H986        H  0.87611501  0.97667897  0.47477904     0.12500
N987        N  0.89243659  0.95674771  0.62281241     0.61300
H988        H  0.92191353  0.93230477  0.58075339     0.08600
O989        O  0.91976938  0.85080635  0.49586318    -0.40200
O990        O  0.92096677  0.85781098  0.42341167    -0.39400
O991        O  0.97082312  0.95127338  0.53748672    -0.39400
O992        O  0.96602998  0.96148163  0.46726205    -0.37100
O993        O  0.87744236  0.94434582  0.63904445    -0.38000
O994        O  0.90761960  0.96369580  0.64854057    -0.34100
O995        O  0.89159301  0.93838312  0.41089468    -0.35500
O996        O  0.91862546  0.96259801  0.41261851    -0.39800
C997        C  0.05668843  0.59561720  0.52799867    -0.13500
C998        C  0.06876214  0.59095956  0.56760150     0.16900
C999        C  0.06405824  0.60335232  0.60703824     0.03100
C1000       C  0.04709109  0.61930526  0.60657027    -0.12000
C1001       C  0.03448528  0.62316138  0.56759017    -0.03100
C1002       C  0.03962690  0.61142490  0.52781277     0.02400
C1003       C  0.08579384  0.57291652  0.56695296     0.09200
N1004       N  0.07572857  0.59938001  0.64830569     0.65600
H1005       H  0.04362087  0.62860675  0.63694448     0.18500
N1006       N  0.02719547  0.61490240  0.48732687     0.76100
H1007       H  0.06036231  0.58672992  0.49705509     0.10000
C1008       C  0.08031756  0.55147179  0.55158826     0.03700
C1009       C  0.09662618  0.53499550  0.54942263    -0.05000
C1010       C  0.11857604  0.53892660  0.56354993    -0.23400
C1011       C  0.12414189  0.56045693  0.57890276     0.13000
C1012       C  0.10786115  0.57720331  0.57997737    -0.12500
N1013       N  0.05797945  0.54586665  0.53963456     0.64600
H1014       H  0.09182014  0.51883844  0.53705892     0.12500
N1015       N  0.14587884  0.56542297  0.59543287     0.61300
H1016       H  0.11249050  0.59362968  0.59132538     0.08600
O1017       O  0.01155684  0.60178758  0.47761775    -0.40200
O1018       O  0.03435510  0.62831848  0.45772006    -0.39400
O1019       O  0.08907960  0.61383667  0.66291701    -0.39400
O1020       O  0.06946779  0.58384480  0.67418408    -0.37100
O1021       O  0.15844726  0.57825220  0.57305478    -0.38000
O1022       O  0.15076212  0.56057533  0.63578739    -0.34100
O1023       O  0.05354068  0.54029553  0.49951888    -0.35500
O1024       O  0.04352539  0.54322481  0.57034436    -0.39800
C1025       C  0.01153408  0.73306745  0.52828065    -0.13500
C1026       C  0.99518284  0.74035932  0.49817627     0.16900
C1027       C  0.97892422  0.72520791  0.48373573     0.03100
C1028       C  0.97879155  0.70334118  0.50038556    -0.12000
C1029       C  0.99495491  0.69572711  0.53147417    -0.03100
C1030       C  0.01163648  0.71115423  0.54484059     0.02400
C1031       C  0.99460556  0.76410777  0.48399206     0.09200
N1032       N  0.96221905  0.73188946  0.45229841     0.65600
H1033       H  0.96543125  0.69286412  0.48909312     0.18500
N1034       N  0.02890439  0.70493610  0.57543422     0.76100
H1035       H  0.02417910  0.74460181  0.53960685     0.10000
C1036       C  0.98255660  0.77973787  0.50917550     0.03700
C1037       C  0.98218168  0.80207168  0.49565449    -0.05000
C1038       C  0.99369766  0.80967849  0.45660725    -0.23400
C1039       C  0.00651904  0.79377723  0.43235932     0.13000
C1040       C  0.00654817  0.77132392  0.44581466    -0.12500
N1041       N  0.97084033  0.77318493  0.54931149     0.64600
H1042       H  0.97312900  0.81320283  0.51726272     0.12500
N1043       N  0.01971071  0.80006153  0.39390220     0.61300
H1044       H  0.01621489  0.75947134  0.42658488     0.08600
O1045       O  0.02645706  0.70852883  0.61722716    -0.40200
O1046       O  0.04814976  0.70125440  0.56001550    -0.39400
O1047       O  0.96530955  0.72893031  0.41045626    -0.39400
O1048       O  0.94319141  0.73730556  0.46654890    -0.37100
O1049       O  0.03889082  0.80803670  0.39992716    -0.38000
O1050       O  0.01457486  0.79288605  0.35523052    -0.34100
O1051       O  0.98048319  0.77405438  0.58712491    -0.35500
O1052       O  0.95011791  0.76992367  0.54790063    -0.39800
C1053       C  0.43595653  0.91010438  0.55065887    -0.13500
C1054       C  0.42071589  0.90700860  0.58632398     0.16900
C1055       C  0.42373327  0.88899056  0.61644225     0.03100
C1056       C  0.44196186  0.87471496  0.61049931    -0.12000
C1057       C  0.45735086  0.87816085  0.57526965    -0.03100
C1058       C  0.45410473  0.89586423  0.54496029     0.02400
C1059       C  0.40257568  0.92354260  0.59190116     0.09200
N1060       N  0.40832871  0.88476508  0.65260536     0.65600
H1061       H  0.44424503  0.86095810  0.63372383     0.18500
N1062       N  0.46863572  0.89899821  0.50710427     0.76100
H1063       H  0.43378471  0.92377099  0.52715315     0.10000
C1064       C  0.40240589  0.93855827  0.62829186     0.03700
C1065       C  0.38743466  0.95633550  0.62832895    -0.05000
C1066       C  0.37227128  0.95968096  0.59283594    -0.23400
C1067       C  0.37173161  0.94385419  0.55747811     0.13000
C1068       C  0.38679449  0.92606875  0.55743212    -0.12500
N1069       N  0.41826698  0.93685417  0.66405875     0.64600
H1070       H  0.38831658  0.96801617  0.65577847     0.12500
N1071       N  0.35732240  0.94641055  0.51949306     0.61300
H1072       H  0.38687130  0.91470269  0.52909179     0.08600
O1073       O  0.48053994  0.91622369  0.50438452    -0.40200
O1074       O  0.46700293  0.88632547  0.47338883    -0.39400
O1075       O  0.38828957  0.88036151  0.64373686    -0.39400
O1076       O  0.41536596  0.88196379  0.69242986    -0.37100
O1077       O  0.36133758  0.96135179  0.49051499    -0.38000
O1078       O  0.34337824  0.93138533  0.51052288    -0.34100
O1079       O  0.43825075  0.94233075  0.65685078    -0.35500
O1080       O  0.41164449  0.93366822  0.70420322    -0.39800
C1081       C  0.55282362  0.90599353  0.47678012    -0.13500
C1082       C  0.57087732  0.90867386  0.50652312     0.16900
C1083       C  0.57034574  0.89711017  0.54829962     0.03100
C1084       C  0.55215587  0.88348140  0.55922326    -0.12000
C1085       C  0.53460242  0.88024357  0.52883287    -0.03100
C1086       C  0.53506108  0.89143085  0.48663159     0.02400
C1087       C  0.58940924  0.92432736  0.49398571     0.09200
N1088       N  0.58836915  0.89847443  0.57961500     0.65600
H1089       H  0.55202812  0.87485886  0.59147886     0.18500
N1090       N  0.51782067  0.88842128  0.45358430     0.76100
H1091       H  0.55257773  0.91527076  0.44533332     0.10000
C1092       C  0.59862515  0.92475957  0.44973654     0.03700
C1093       C  0.61387893  0.94134014  0.43741589    -0.05000
C1094       C  0.62148941  0.95685165  0.46896506    -0.23400
C1095       C  0.61360207  0.95563433  0.51393975     0.13000
C1096       C  0.59710300  0.94001814  0.52558365    -0.12500
N1097       N  0.59319677  0.90811032  0.41720138     0.64600
H1098       H  0.62020969  0.94183414  0.40296999     0.12500
N1099       N  0.62208094  0.97009027  0.54807387     0.61300
H1100       H  0.59017211  0.94036565  0.55947423     0.08600
O1101       O  0.51324206  0.90383852  0.42613613    -0.40200
O1102       O  0.50926071  0.86955166  0.44755193    -0.39400
O1103       O  0.58486399  0.90520081  0.61943925    -0.39400
O1104       O  0.60682203  0.88977695  0.56983160    -0.37100
O1105       O  0.60936876  0.98407234  0.56634572    -0.38000
O1106       O  0.64003424  0.96512026  0.56749657    -0.34100
O1107       O  0.58501077  0.91365742  0.37954808    -0.35500
O1108       O  0.60022512  0.88860462  0.42272813    -0.39800
C1109       C  0.42439449  0.60728394  0.40066936    -0.13500
C1110       C  0.43002024  0.58522488  0.41078834     0.12100
C1111       C  0.45232269  0.58032503  0.42164461     0.03100
C1112       C  0.46830439  0.59737521  0.42286910    -0.12000
C1113       C  0.46281932  0.61942685  0.41221078    -0.03100
C1114       C  0.44051312  0.62428740  0.40093307     0.02400
C1115       C  0.41251646  0.56752827  0.40919989     0.09200
N1116       N  0.45925300  0.55795933  0.42931415     0.65600
H1117       H  0.48525514  0.59321909  0.43172188     0.18500
N1118       N  0.43416111  0.64612456  0.38733435     0.76100
H1119       H  0.40740723  0.61126825  0.39174554     0.10000
C1120       C  0.40619793  0.55529157  0.44816607     0.03700
C1121       C  0.39022867  0.53828408  0.44486693    -0.05000
C1122       C  0.37978536  0.53353922  0.40363816    -0.23400
C1123       C  0.38566182  0.54607405  0.36479578     0.13000
C1124       C  0.40211211  0.56270183  0.36786543    -0.12500
N1125       N  0.41512115  0.56057221  0.49166038     0.64600
H1126       H  0.38565062  0.52891225  0.47493151     0.12500
N1127       N  0.37457254  0.54272303  0.32251447     0.61300
H1128       H  0.40660841  0.57216592  0.33788619     0.08600
O1129       O  0.42035971  0.65684443  0.41089627    -0.40200
O1130       O  0.43952407  0.65318779  0.34847706    -0.39400
O1131       O  0.45847945  0.54418208  0.39730083    -0.39400
O1132       O  0.46961896  0.55302998  0.46501284    -0.37100
O1133       O  0.35365634  0.54412399  0.32067967    -0.38000
O1134       O  0.38567511  0.54227129  0.28612186    -0.34100
O1135       O  0.41115608  0.57925125  0.50895995    -0.35500
O1136       O  0.42353835  0.54550039  0.51582045    -0.39800
C1137       C  0.51776366  0.72823742  0.48441929    -0.13500
C1138       C  0.49749130  0.73733212  0.49838806     0.16900
C1139       C  0.47793724  0.72490687  0.49194086     0.03100
C1140       C  0.47884456  0.70382984  0.47174674    -0.12000
C1141       C  0.49919667  0.69431647  0.45752950    -0.03100
C1142       C  0.51883099  0.70721969  0.46401792     0.02400
C1143       C  0.49690269  0.76042162  0.51659514     0.09200
N1144       N  0.45693432  0.73342261  0.50634255     0.65600
H1145       H  0.46322302  0.69540784  0.46703671     0.18500
N1146       N  0.54009629  0.69963304  0.44892719     0.76100
H1147       H  0.53292656  0.73779089  0.48840028     0.10000
C1148       C  0.50568801  0.76569375  0.55929400     0.03700
C1149       C  0.50594105  0.78777993  0.57445361    -0.05000
C1150       C  0.49776290  0.80540187  0.54751704    -0.23400
C1151       C  0.48913716  0.79979982  0.50418262     0.13000
C1152       C  0.48857144  0.77761609  0.48963656    -0.12500
N1153       N  0.51446090  0.74869840  0.58784163     0.64600
H1154       H  0.51312762  0.79065881  0.60720913     0.12500
N1155       N  0.48147551  0.81650623  0.47358001     0.61300
H1156       H  0.48210746  0.77386394  0.45631831     0.08600
O1157       O  0.55340679  0.69160199  0.47749675    -0.40200
O1158       O  0.54775428  0.70700647  0.41195454    -0.39400
O1159       O  0.44331829  0.74055089  0.47740065    -0.39400
O1160       O  0.45080243  0.73094663  0.54699576    -0.37100
O1161       O  0.49450983  0.82359658  0.44314554    -0.38000
O1162       O  0.46083356  0.81940373  0.46901370    -0.34100
O1163       O  0.53522686  0.74605296  0.59029157    -0.35500
O1164       O  0.50186136  0.73901094  0.61598291    -0.39800
C1165       C  0.89177073  0.44043752  0.38034672    -0.13500
C1166       C  0.90575479  0.43801040  0.41812747     0.16900
C1167       C  0.90332727  0.45296383  0.45466644     0.03100
C1168       C  0.88731829  0.46974912  0.45272931    -0.12000
C1169       C  0.87343513  0.47202316  0.41516261    -0.03100
C1170       C  0.87552706  0.45710698  0.37887527     0.02400
C1171       C  0.92368435  0.42088014  0.41772899     0.09200
N1172       N  0.91681312  0.45121321  0.49427317     0.65600
H1173       H  0.88553333  0.48095263  0.48108767     0.18500
N1174       N  0.86129347  0.45869229  0.34039030     0.76100
H1175       H  0.89364406  0.42953858  0.35153517     0.10000
C1176       C  0.91938657  0.39836350  0.40793721     0.03700
C1177       C  0.93684482  0.38292451  0.40780346    -0.05000
C1178       C  0.95880510  0.38930102  0.41774203    -0.23400
C1179       C  0.96306728  0.41199810  0.42696873     0.13000
C1180       C  0.94567254  0.42738689  0.42618870    -0.12500
N1181       N  0.89729588  0.39076726  0.39913848     0.64600
H1182       H  0.93312156  0.36579446  0.39989559     0.12500
N1183       N  0.98462948  0.41977936  0.43966041     0.61300
H1184       H  0.94943311  0.44465639  0.43272170     0.08600
O1185       O  0.84211421  0.45016628  0.34218162    -0.40200
O1186       O  0.86925358  0.46456751  0.30256373    -0.39400
O1187       O  0.92939788  0.46709924  0.50514299    -0.39400
O1188       O  0.91339084  0.43563063  0.52211583    -0.37100
O1189       O  0.98991042  0.41941599  0.48093659    -0.38000
O1190       O  0.99516840  0.43248511  0.41301986    -0.34100
O1191       O  0.89238439  0.38362076  0.36032490    -0.35500
O1192       O  0.88384432  0.38797075  0.43161846    -0.39800
C1193       C  0.89112027  0.57925123  0.48628830    -0.13500
C1194       C  0.91200639  0.57014388  0.49528783     0.16900
C1195       C  0.91528957  0.54724934  0.48997810     0.03100
C1196       C  0.89794513  0.53396973  0.47370991    -0.12000
C1197       C  0.87701378  0.54305809  0.46394115    -0.03100
C1198       C  0.87355676  0.56594868  0.47116613     0.02400
C1199       C  0.92999090  0.58498852  0.51055726     0.09200
N1200       N  0.93608658  0.53730037  0.50115183     0.65600
H1201       H  0.90093759  0.51650366  0.46838719     0.18500
N1202       N  0.85281734  0.57627965  0.46098466     0.76100
H1203       H  0.88849346  0.59688049  0.49075624     0.10000
C1204       C  0.94362253  0.59629231  0.47921109     0.03700
C1205       C  0.95880518  0.61224073  0.49435253    -0.05000
C1206       C  0.96057206  0.61731291  0.54061051    -0.23400
C1207       C  0.94702169  0.60562179  0.57203153     0.13000
C1208       C  0.93197660  0.58956593  0.55671092    -0.12500
N1209       N  0.94158718  0.59230775  0.43175991     0.64600
H1210       H  0.96898632  0.62101513  0.46970157     0.12500
N1211       N  0.94650992  0.61126779  0.61889333     0.61300
H1212       H  0.92111585  0.58125729  0.58085503     0.08600
O1213       O  0.85196873  0.58979287  0.42832819    -0.40200
O1214       O  0.83799833  0.57712103  0.49133653    -0.39400
O1215       O  0.93797530  0.52661790  0.53776663    -0.39400
O1216       O  0.95131387  0.53625651  0.47169399    -0.37100
O1217       O  0.93026383  0.62239029  0.63344079    -0.38000
O1218       O  0.95734924  0.59954860  0.64648122    -0.34100
O1219       O  0.92782940  0.60333094  0.40879409    -0.35500
O1220       O  0.95563186  0.58024466  0.41184201    -0.39800
C1221       C  0.60424700  0.42875566  0.58159051    -0.13500
C1222       C  0.58195427  0.43411230  0.57349705     0.16900
C1223       C  0.57591746  0.45656639  0.56988460     0.03100
C1224       C  0.59212812  0.47322181  0.57386462    -0.12000
C1225       C  0.61458959  0.46802877  0.58166684    -0.03100
C1226       C  0.62047839  0.44538862  0.58651413     0.02400
C1227       C  0.56493108  0.41617119  0.57268815     0.09200
N1228       N  0.55340952  0.46266222  0.56102128     0.65600
H1229       H  0.58703649  0.49028153  0.56981635     0.18500
N1230       N  0.64244936  0.43900352  0.59948061     0.76100
H1231       H  0.60889814  0.41154196  0.58602080     0.10000
C1232       C  0.56416800  0.40052577  0.53746494     0.03700
C1233       C  0.54834991  0.38334059  0.53863962    -0.05000
C1234       C  0.53310506  0.38132183  0.57473869    -0.23400
C1235       C  0.53428867  0.39680662  0.61055800     0.13000
C1236       C  0.54995317  0.41409759  0.60897463    -0.12500
N1237       N  0.57882684  0.40241912  0.49943046     0.64600
H1238       H  0.54752064  0.37197720  0.51037534     0.12500
N1239       N  0.52081423  0.39437698  0.65028632     0.61300
H1240       H  0.55084486  0.42565897  0.63692176     0.08600
O1241       O  0.65316483  0.42531432  0.57572290    -0.40200
O1242       O  0.64978183  0.44445679  0.63785355    -0.39400
O1243       O  0.54188240  0.47160241  0.59169763    -0.39400
O1244       O  0.54606689  0.46183700  0.52109693    -0.37100
O1245       O  0.52650749  0.38054728  0.68015152    -0.38000
O1246       O  0.50706106  0.40932725  0.66046445    -0.34100
O1247       O  0.59506459  0.38936127  0.49562018    -0.35500
O1248       O  0.57381754  0.41499996  0.46681580    -0.39800
C1249       C  0.59919980  0.57822848  0.53625134    -0.13500
C1250       C  0.58127501  0.57003663  0.51099432     0.16900
C1251       C  0.58024206  0.54713337  0.50147088     0.03100
C1252       C  0.59692022  0.53294796  0.51743005    -0.12000
C1253       C  0.61446826  0.54114206  0.54359322    -0.03100
C1254       C  0.61555923  0.56396866  0.55298250     0.02400
C1255       C  0.56447884  0.58579721  0.49306103     0.09200
N1256       N  0.56195684  0.53796479  0.47701958     0.65600
H1257       H  0.59602621  0.51542536  0.50978546     0.18500
N1258       N  0.63259705  0.57278924  0.58118493     0.76100
H1259       H  0.60047734  0.59580961  0.54319465     0.10000
C1260       C  0.55309219  0.60060920  0.52166706     0.03700
C1261       C  0.53845027  0.61618945  0.50322348    -0.05000
C1262       C  0.53502150  0.61779572  0.45617358    -0.23400
C1263       C  0.54666676  0.60291492  0.42751993     0.13000
C1264       C  0.56102848  0.58711692  0.44624576    -0.12500
N1265       N  0.55607150  0.59990775  0.56967092     0.64600
H1266       H  0.52948228  0.62688844  0.52624962     0.12500
N1267       N  0.54553241  0.60439477  0.37927014     0.61300
H1268       H  0.57027474  0.57634488  0.42375344     0.08600
O1269       O  0.64861236  0.58322793  0.56326971    -0.40200
O1270       O  0.62860549  0.57526312  0.62284202    -0.39400
O1271       O  0.56521191  0.52907189  0.43895873    -0.39400
O1272       O  0.54316472  0.53620576  0.49594212    -0.37100
O1273       O  0.53659667  0.58877322  0.35753004    -0.38000
O1274       O  0.55864263  0.61738422  0.35872143    -0.34100
O1275       O  0.56475090  0.61620549  0.58970509    -0.35500
O1276       O  0.54772713  0.58421681  0.59255986    -0.39800
C1277       C  0.72496854  0.52529416  0.52629538    -0.13500
C1278       C  0.73361137  0.50618491  0.50653043     0.16900
C1279       C  0.72104610  0.48652738  0.50818806     0.03100
C1280       C  0.69983428  0.48637639  0.52836737    -0.12000
C1281       C  0.69048544  0.50577373  0.54730026    -0.03100
C1282       C  0.70387823  0.52529961  0.54670385     0.02400
C1283       C  0.75611853  0.50699056  0.48567886     0.09200
N1284       N  0.72945254  0.46663775  0.48848788     0.65600
H1285       H  0.69108626  0.47079078  0.52858870     0.18500
N1286       N  0.69662966  0.54541128  0.56725840     0.76100
H1287       H  0.73479069  0.54040322  0.52619664     0.10000
C1288       C  0.76015802  0.51885215  0.44538535     0.03700
C1289       C  0.78172455  0.52004926  0.42724116    -0.05000
C1290       C  0.79993759  0.50981829  0.44893878    -0.23400
C1291       C  0.79577339  0.49898557  0.49108851     0.13000
C1292       C  0.77400428  0.49717537  0.50815431    -0.12500
N1293       N  0.74248331  0.53010129  0.42280796     0.64600
H1294       H  0.78389518  0.52985521  0.39694206     0.12500
N1295       N  0.81351102  0.49037993  0.51802022     0.61300
H1296       H  0.77115735  0.48875580  0.54018398     0.08600
O1297       O  0.68869113  0.56041825  0.54230916    -0.40200
O1298       O  0.70505892  0.55083540  0.60465486    -0.39400
O1299       O  0.73756557  0.45173895  0.51349324    -0.39400
O1300       O  0.72629216  0.46282411  0.44702228    -0.37100
O1301       O  0.81484355  0.46973636  0.52447583    -0.38000
O1302       O  0.82400137  0.50327428  0.54388956    -0.34100
O1303       O  0.73940377  0.55048358  0.42983889    -0.35500
O1304       O  0.73223570  0.52060814  0.39110229    -0.39800
C1305       C  0.56948887  0.62021329  0.19110576    -0.13500
C1306       C  0.54943625  0.63200781  0.19005761     0.16900
C1307       C  0.54106086  0.63919692  0.14804903     0.03100
C1308       C  0.55308863  0.63502912  0.10814787    -0.12000
C1309       C  0.57385818  0.62433561  0.10925866    -0.03100
C1310       C  0.58173872  0.61636646  0.15135112     0.02400
C1311       C  0.53845989  0.63796990  0.23349128     0.09200
N1312       N  0.52138368  0.65238206  0.14575048     0.65600
H1313       H  0.54676319  0.64152111  0.07647146     0.18500
N1314       N  0.60238003  0.60482433  0.15463701     0.76100
H1315       H  0.57599579  0.61449804  0.22326372     0.10000
C1316       C  0.51793119  0.62868370  0.24714266     0.03700
C1317       C  0.50889013  0.63404476  0.28962541    -0.05000
C1318       C  0.51998057  0.64853289  0.31906404    -0.23400
C1319       C  0.54027597  0.65829804  0.30475466     0.13000
C1320       C  0.54918941  0.65300059  0.26218312    -0.12500
N1321       N  0.50659540  0.61302846  0.21923172     0.64600
H1322       H  0.49334804  0.62640908  0.30016656     0.12500
N1323       N  0.55287000  0.67235918  0.33403035     0.61300
H1324       H  0.56500703  0.66015776  0.25194639     0.08600
O1325       O  0.60241374  0.58391125  0.15570196    -0.40200
O1326       O  0.61981686  0.61532788  0.16490189    -0.39400
O1327       O  0.52196466  0.67225021  0.15893269    -0.39400
O1328       O  0.50490314  0.64561662  0.12334284    -0.37100
O1329       O  0.56096534  0.66453495  0.37004851    -0.38000
O1330       O  0.55941500  0.69106121  0.31988294    -0.34100
O1331       O  0.51407263  0.59359382  0.21564132    -0.35500
O1332       O  0.48725842  0.61726821  0.20529812    -0.39800
C1333       C  0.60896310  0.57677899  0.79462156    -0.13500
C1334       C  0.61576854  0.55492776  0.80275594     0.16900
C1335       C  0.61670962  0.54708185  0.84767101     0.03100
C1336       C  0.61200569  0.56152789  0.88361906    -0.12000
C1337       C  0.60691138  0.58400771  0.87571510    -0.03100
C1338       C  0.60463754  0.59134211  0.83038913     0.02400
C1339       C  0.62459468  0.54197411  0.76410170     0.09200
N1340       N  0.62438004  0.52518837  0.85749834     0.65600
H1341       H  0.61390427  0.55544460  0.91796255     0.18500
N1342       N  0.59952060  0.61387991  0.81982379     0.76100
H1343       H  0.60818242  0.58294053  0.76011045     0.10000
C1344       C  0.61331085  0.52365470  0.74565703     0.03700
C1345       C  0.62114933  0.51402936  0.70538849    -0.05000
C1346       C  0.64006156  0.52247321  0.68270190    -0.23400
C1347       C  0.65216012  0.53985403  0.70343376     0.13000
C1348       C  0.64428363  0.54936309  0.74350885    -0.12500
N1349       N  0.59320666  0.51550681  0.76577694     0.64600
H1350       H  0.61187858  0.50036192  0.69096823     0.12500
N1351       N  0.67174764  0.54910645  0.68333923     0.61300
H1352       H  0.65325452  0.56325777  0.75790009     0.08600
O1353       O  0.57982093  0.61907553  0.80994558    -0.40200
O1354       O  0.61511653  0.62738973  0.81160417    -0.39400
O1355       O  0.64489538  0.52099367  0.85500362    -0.39400
O1356       O  0.61146606  0.51143928  0.87649369    -0.37100
O1357       O  0.67014451  0.56652448  0.65982250    -0.38000
O1358       O  0.69041768  0.54401526  0.69963405    -0.34100
O1359       O  0.57514871  0.52544086  0.75836037    -0.35500
O1360       O  0.59280107  0.49638820  0.78328597    -0.39800
C1361       C  0.62856212  0.95917516  0.16147619    -0.13500
C1362       C  0.62358351  0.94686225  0.20064992     0.16900
C1363       C  0.61373351  0.92576537  0.19607070     0.03100
C1364       C  0.61005485  0.91693325  0.15278639    -0.12000
C1365       C  0.61568254  0.92889511  0.11323761    -0.03100
C1366       C  0.62465155  0.95050357  0.11811552     0.02400
C1367       C  0.62928363  0.95616223  0.24581937     0.09200
N1368       N  0.60689366  0.91333584  0.23507698     0.65600
H1369       H  0.60292839  0.90046556  0.15023764     0.18500
N1370       N  0.63051986  0.96368121  0.07953341     0.76100
H1371       H  0.63595819  0.97550888  0.16457829     0.10000
C1372       C  0.64654302  0.94715369  0.27237327     0.03700
C1373       C  0.65181622  0.95672798  0.31424184    -0.05000
C1374       C  0.64054396  0.97552827  0.33009467    -0.23400
C1375       C  0.62326905  0.98452023  0.30351289     0.13000
C1376       C  0.61776327  0.97474917  0.26189852    -0.12500
N1377       N  0.65952281  0.92891363  0.25643842     0.64600
H1378       H  0.66499935  0.94952821  0.33435231     0.12500
N1379       N  0.61199164  0.00426399  0.31699324     0.61300
H1380       H  0.60467329  0.98196644  0.24156077     0.08600
O1381       O  0.65065996  0.96540133  0.06777106    -0.40200
O1382       O  0.61632407  0.97660145  0.06259070    -0.39400
O1383       O  0.58829399  0.91733867  0.25320039    -0.39400
O1384       O  0.61709049  0.89582602  0.24559665    -0.37100
O1385       O  0.62152999  0.02279467  0.31212354    -0.38000
O1386       O  0.59143010  0.00359692  0.32570694    -0.34100
O1387       O  0.67170472  0.93135883  0.22182661    -0.35500
O1388       O  0.66197302  0.91200329  0.28121912    -0.39800
C1389       C  0.54180266  0.88420869  0.82803820    -0.13500
C1390       C  0.55159856  0.88898870  0.78593412     0.16900
C1391       C  0.57243437  0.89974356  0.78469472     0.03100
C1392       C  0.58378334  0.90411009  0.82518091    -0.12000
C1393       C  0.57456302  0.89835890  0.86757965    -0.03100
C1394       C  0.55294185  0.88887977  0.86864020     0.02400
C1395       C  0.54067600  0.88104943  0.74384162     0.09200
N1396       N  0.58217712  0.90645276  0.74250677     0.65600
H1397       H  0.60012978  0.91168111  0.82326372     0.18500
N1398       N  0.54236674  0.88299876  0.91045957     0.76100
H1399       H  0.52570019  0.87608744  0.82938045     0.10000
C1400       C  0.54943961  0.86306537  0.71924862     0.03700
C1401       C  0.53861804  0.85551774  0.68028119    -0.05000
C1402       C  0.51877643  0.86527213  0.66527088    -0.23400
C1403       C  0.51000882  0.88333899  0.68997141     0.13000
C1404       C  0.52100167  0.89102850  0.72884500    -0.12500
N1405       N  0.56887104  0.85171252  0.73444322     0.64600
H1406       H  0.54583273  0.84186052  0.66163082     0.12500
N1407       N  0.48929047  0.89319222  0.67789306     0.61300
H1408       H  0.51395529  0.90465959  0.74785076     0.08600
O1409       O  0.54271892  0.86312461  0.92395358    -0.40200
O1410       O  0.52943559  0.89660251  0.92931784    -0.39400
O1411       O  0.57385042  0.92243608  0.72079348    -0.39400
O1412       O  0.60092378  0.89900906  0.73082663    -0.37100
O1413       O  0.47145863  0.88413621  0.69113532    -0.38000
O1414       O  0.48891921  0.91307510  0.66443693    -0.34100
O1415       O  0.56756337  0.83901652  0.76844534    -0.35500
O1416       O  0.58587915  0.85099215  0.70928153    -0.39800
C1417       C  0.62089248  0.78455307  0.94832339    -0.13500
C1418       C  0.60751278  0.77390362  0.98069463     0.16900
C1419       C  0.59592829  0.78661553  0.01284929     0.03100
C1420       C  0.59809816  0.80976102  0.01252155    -0.12000
C1421       C  0.61199573  0.82056272  0.98083757    -0.03100
C1422       C  0.62327575  0.80763132  0.94807091     0.02400
C1423       C  0.60778193  0.74945323  0.98291480     0.09200
N1424       N  0.58273512  0.77617645  0.04726498     0.65600
H1425       H  0.58927772  0.81923950  0.03795774     0.18500
N1426       N  0.63754762  0.81752034  0.91475673     0.76100
H1427       H  0.63000144  0.77479869  0.92372562     0.10000
C1428       C  0.59095146  0.73639390  0.96343365     0.03700
C1429       C  0.59278885  0.71320299  0.96384851    -0.05000
C1430       C  0.61127281  0.70273835  0.98355626    -0.23400
C1431       C  0.62804511  0.71607409  0.00326084     0.13000
C1432       C  0.62613869  0.73915405  0.00266602    -0.12500
N1433       N  0.57223975  0.74647675  0.94213189     0.64600
H1434       H  0.57971302  0.70338039  0.94861398     0.12500
N1435       N  0.64757757  0.70658540  0.02255500     0.61300
H1436       H  0.63927739  0.74916755  0.01722189     0.08600
O1437       O  0.63048373  0.82055093  0.87504208    -0.40200
O1438       O  0.65806978  0.81944782  0.92265128    -0.39400
O1439       O  0.59176283  0.77002368  0.08368033    -0.39400
O1440       O  0.56180583  0.77674210  0.04474136    -0.37100
O1441       O  0.66520718  0.70582935  0.99928647    -0.38000
O1442       O  0.64849513  0.70343956  0.06478540    -0.34100
O1443       O  0.57288848  0.75060868  0.90021341    -0.35500
O1444       O  0.55394332  0.74754772  0.96310119    -0.39800
C1445       C  0.88818322  0.93369482  0.80009435    -0.13500
C1446       C  0.88137679  0.95576556  0.80491721     0.16900
C1447       C  0.88178494  0.96556411  0.84814764     0.03100
C1448       C  0.88803484  0.95287504  0.88590524    -0.12000
C1449       C  0.89318648  0.93023346  0.88170982    -0.03100
C1450       C  0.89419110  0.92089718  0.83779815     0.02400
C1451       C  0.87240839  0.96755034  0.76479210     0.09200
N1452       N  0.87370152  0.98758391  0.85498433     0.65600
H1453       H  0.88691218  0.96033443  0.91915811     0.18500
N1454       N  0.90017005  0.89818938  0.83100856     0.76100
H1455       H  0.88824100  0.92616547  0.76681161     0.10000
C1456       C  0.88293807  0.98632724  0.74584424     0.03700
C1457       C  0.87452679  0.99584139  0.70607769    -0.05000
C1458       C  0.85604205  0.98665455  0.68377730    -0.23400
C1459       C  0.84496003  0.96841485  0.70418348     0.13000
C1460       C  0.85317628  0.95917722  0.74432483    -0.12500
N1461       N  0.90310966  0.99487589  0.76448090     0.64600
H1462       H  0.88328737  0.00984450  0.69135147     0.12500
N1463       N  0.82660724  0.95771504  0.68282283     0.61300
H1464       H  0.84492056  0.94476981  0.75878429     0.08600
O1465       O  0.88689338  0.88515277  0.81143895    -0.40200
O1466       O  0.91933357  0.89152960  0.84162275    -0.39400
O1467       O  0.85346129  0.99180731  0.84797918    -0.39400
O1468       O  0.88563047  0.00162680  0.87520280    -0.37100
O1469       O  0.83028656  0.94255181  0.65447957    -0.38000
O1470       O  0.80744635  0.95947968  0.70003697    -0.34100
O1471       O  0.92104565  0.98447865  0.75840055    -0.35500
O1472       O  0.90378340  0.01457664  0.77863043    -0.39800
C1473       C  0.94845670  0.86821036  0.16900723    -0.13500
C1474       C  0.94379886  0.88206359  0.20574988     0.16900
C1475       C  0.92903109  0.89989246  0.19998923     0.03100
C1476       C  0.91852267  0.90314340  0.15814151    -0.12000
C1477       C  0.92282675  0.88903356  0.12138543    -0.03100
C1478       C  0.93815641  0.87149163  0.12707513     0.02400
C1479       C  0.95409525  0.87707706  0.25007365     0.09200
N1480       N  0.92464189  0.91483821  0.23631201     0.65600
H1481       H  0.90687582  0.91668964  0.15445309     0.18500
N1482       N  0.94227267  0.85590408  0.09168146     0.76100
H1483       H  0.95971444  0.85437136  0.17330724     0.10000
C1484       C  0.94322586  0.86344539  0.28206905     0.03700
C1485       C  0.95419099  0.85717882  0.32181034    -0.05000
C1486       C  0.97606339  0.86417904  0.33043364    -0.23400
C1487       C  0.98704831  0.87784993  0.29816213     0.13000
C1488       C  0.97583110  0.88427965  0.25853981    -0.12500
N1489       N  0.92118048  0.85549544  0.27419157     0.64600
H1490       H  0.94548731  0.84685489  0.34629383     0.12500
N1491       N  0.00987661  0.88421070  0.30344732     0.61300
H1492       H  0.98439846  0.89426967  0.23327844     0.08600
O1493       O  0.92969913  0.83924899  0.08744602    -0.40200
O1494       O  0.96016183  0.85698221  0.06924006    -0.39400
O1495       O  0.93665167  0.93186846  0.24090079    -0.39400
O1496       O  0.90676619  0.91311093  0.25862226    -0.37100
O1497       O  0.02412364  0.86991504  0.31469017    -0.38000
O1498       O  0.01639934  0.90303890  0.28987443    -0.34100
O1499       O  0.91832686  0.83615558  0.25913438    -0.35500
O1500       O  0.90480692  0.86600589  0.29000283    -0.39800
C1501       C  0.72768110  0.91025796  0.95072669    -0.13500
C1502       C  0.73860583  0.89778068  0.98402163     0.16900
C1503       C  0.72603575  0.88509552  0.01488929     0.03100
C1504       C  0.70286841  0.88492930  0.01216949    -0.12000
C1505       C  0.69164004  0.89742473  0.97909642    -0.03100
C1506       C  0.70433812  0.91035193  0.94823511     0.02400
C1507       C  0.76315942  0.89777006  0.98626384     0.09200
N1508       N  0.73666602  0.87191880  0.04872095     0.65600
H1509       H  0.69364849  0.87488973  0.03636272     0.18500
N1510       N  0.69391594  0.92361244  0.91427952     0.76100
H1511       H  0.73732173  0.92007850  0.92682539     0.10000
C1512       C  0.77581047  0.88510570  0.95584801     0.03700
C1513       C  0.79890489  0.88407454  0.96055496    -0.05000
C1514       C  0.80989925  0.89561567  0.99529447    -0.23400
C1515       C  0.79713398  0.90872904  0.02525650     0.13000
C1516       C  0.77393158  0.90957710  0.02064080    -0.12500
N1517       N  0.76531789  0.87265611  0.92081950     0.64600
H1518       H  0.80823109  0.87398940  0.93690751     0.12500
N1519       N  0.80733378  0.92103603  0.06082973     0.61300
H1520       H  0.76423087  0.91933790  0.04425446     0.08600
O1521       O  0.69348186  0.91693262  0.87384712    -0.40200
O1522       O  0.68902808  0.94348454  0.92289378    -0.39400
O1523       O  0.73862408  0.87929956  0.08843088    -0.39400
O1524       O  0.74086166  0.85181667  0.04085965    -0.37100
O1525       O  0.81156940  0.94135957  0.05506850    -0.38000
O1526       O  0.80845170  0.91273631  0.10005325    -0.34100
O1527       O  0.76516583  0.88014502  0.88085273    -0.35500
O1528       O  0.75945605  0.85286372  0.92828033    -0.39800
C1529       C  0.97336121  0.62895987  0.74093112    -0.13500
C1530       C  0.95225531  0.63809273  0.74821178     0.16900
C1531       C  0.94361945  0.65307273  0.71608873     0.03100
C1532       C  0.95604946  0.65840613  0.67719520    -0.12000
C1533       C  0.97702050  0.64888877  0.66929252    -0.03100
C1534       C  0.98573117  0.63417608  0.70190905     0.02400
C1535       C  0.94048359  0.63326671  0.79140499     0.09200
N1536       N  0.92235907  0.66313185  0.72261771     0.65600
H1537       H  0.94888900  0.66947349  0.65225203     0.18500
N1538       N  0.00754825  0.62523710  0.69711022     0.76100
H1539       H  0.98038617  0.61788352  0.76603086     0.10000
C1540       C  0.92085640  0.62042740  0.79351678     0.03700
C1541       C  0.90988871  0.61733868  0.83524070    -0.05000
C1542       C  0.91842241  0.62646737  0.87538637    -0.23400
C1543       C  0.93844305  0.63886374  0.87296749     0.13000
C1544       C  0.94916066  0.64212273  0.83130518    -0.12500
N1545       N  0.91229680  0.60985697  0.75397252     0.64600
H1546       H  0.89468384  0.60764796  0.83622073     0.12500
N1547       N  0.94754128  0.64939156  0.91196189     0.61300
H1548       H  0.96420016  0.65208107  0.82994595     0.08600
O1549       O  0.00986169  0.60472852  0.69034970    -0.40200
O1550       O  0.02389271  0.63639667  0.71112798    -0.39400
O1551       O  0.92054905  0.67944462  0.74896962    -0.39400
O1552       O  0.90667581  0.65864855  0.69588458    -0.37100
O1553       O  0.96339296  0.64033360  0.93278988    -0.38000
O1554       O  0.94308820  0.66946875  0.91943168    -0.34100
O1555       O  0.92204191  0.59300810  0.73842769    -0.35500
O1556       O  0.89302931  0.61452667  0.74022697    -0.39800
C1557       C  0.88739961  0.58156251  0.19976632    -0.13500
C1558       C  0.87934090  0.55982968  0.19601989     0.16900
C1559       C  0.87750805  0.55021669  0.15276808     0.03100
C1560       C  0.88248947  0.56293880  0.11407358    -0.12000
C1561       C  0.88872443  0.58538331  0.11760465    -0.03100
C1562       C  0.89209497  0.59436763  0.16125076     0.02400
C1563       C  0.87068284  0.54872237  0.23740225     0.09200
N1564       N  0.86868256  0.52834341  0.14731596     0.65600
H1565       H  0.87974384  0.55566927  0.08106275     0.18500
N1566       N  0.89914725  0.61680551  0.16728249     0.76100
H1567       H  0.88911053  0.58898994  0.23295382     0.10000
C1568       C  0.88066299  0.52974210  0.25623844     0.03700
C1569       C  0.87255115  0.52100250  0.29724745    -0.05000
C1570       C  0.85459195  0.53086614  0.32014244    -0.23400
C1571       C  0.84430072  0.54959173  0.30038448     0.13000
C1572       C  0.85238290  0.55821284  0.25943132    -0.12500
N1573       N  0.89970482  0.51985856  0.23549634     0.64600
H1574       H  0.88073875  0.50671191  0.31176403     0.12500
N1575       N  0.82670421  0.56111222  0.32276479     0.61300
H1576       H  0.84464238  0.57286934  0.24523177     0.08600
O1577       O  0.91962669  0.62115593  0.17026492    -0.40200
O1578       O  0.88507722  0.63136627  0.17802071    -0.39400
O1579       O  0.84842909  0.52462912  0.15596565    -0.39400
O1580       O  0.87990706  0.51391730  0.12656858    -0.37100
O1581       O  0.83143658  0.57706631  0.34846986    -0.38000
O1582       O  0.80714355  0.55937036  0.30787741    -0.34100
O1583       O  0.91847796  0.52905090  0.23939089    -0.35500
O1584       O  0.89858840  0.50013595  0.22157867    -0.39800
C1585       C  0.90612893  0.73368559  0.02037139    -0.13500
C1586       C  0.88780392  0.74597418  0.00575728     0.16900
C1587       C  0.86839839  0.73505964  0.99165978     0.03100
C1588       C  0.86752014  0.71198152  0.99220680    -0.12000
C1589       C  0.88582347  0.69942406  0.00661231    -0.03100
C1590       C  0.90535695  0.71048004  0.02072515     0.02400
C1591       C  0.88905288  0.77025628  0.00470848     0.09200
N1592       N  0.84952383  0.74726150  0.97634314     0.65600
H1593       H  0.85235143  0.70388076  0.98133096     0.18500
N1594       N  0.92482893  0.69850145  0.03340057     0.76100
H1595       H  0.92117277  0.74214934  0.03082379     0.10000
C1596       C  0.88218068  0.78269760  0.04223696     0.03700
C1597       C  0.88146333  0.80574996  0.03905935    -0.05000
C1598       C  0.88776565  0.81674589  0.99887797    -0.23400
C1599       C  0.89549225  0.80416925  0.96174669     0.13000
C1600       C  0.89591311  0.78101511  0.96489262    -0.12500
N1601       N  0.87569209  0.77206139  0.08360428     0.64600
H1602       H  0.87589925  0.81506643  0.06828022     0.12500
N1603       N  0.90223512  0.81450901  0.92024534     0.61300
H1604       H  0.90120150  0.77136226  0.93590981     0.08600
O1605       O  0.93041119  0.69760083  0.07450157    -0.40200
O1606       O  0.93859290  0.69283530  0.00325277    -0.39400
O1607       O  0.84605199  0.74929368  0.93442046    -0.39400
O1608       O  0.83448029  0.75254898  0.00417231    -0.37100
O1609       O  0.88818709  0.81740485  0.88918955    -0.38000
O1610       O  0.92267275  0.81700484  0.91165502    -0.34100
O1611       O  0.88979192  0.76941334  0.11464895    -0.35500
O1612       O  0.85539132  0.76833175  0.09164681    -0.39800
C1613       C  0.76936216  0.63542147  0.02255121    -0.13500
C1614       C  0.75922060  0.61926195  0.99571375     0.16900
C1615       C  0.77252678  0.60430492  0.97130920     0.03100
C1616       C  0.79576200  0.60594347  0.97355445    -0.12000
C1617       C  0.80610125  0.62250815  0.99954533    -0.03100
C1618       C  0.79253901  0.63721237  0.02473454     0.02400
C1619       C  0.73475873  0.61946710  0.99142324     0.09200
N1620       N  0.76268725  0.58800392  0.94263076     0.65600
H1621       H  0.80572553  0.59446835  0.95401220     0.18500
N1622       N  0.80188817  0.65444085  0.05181679     0.76100
H1623       H  0.75916433  0.64704101  0.04126941     0.10000
C1624       C  0.72108233  0.60433985  0.01507411     0.03700
C1625       C  0.69790017  0.60643390  0.01298498    -0.05000
C1626       C  0.68800010  0.62341565  0.98736067    -0.23400
C1627       C  0.70189234  0.63813080  0.96254020     0.13000
C1628       C  0.72501602  0.63610851  0.96511385    -0.12500
N1629       N  0.73048842  0.58730442  0.04264538     0.64600
H1630       H  0.68763147  0.59487162  0.03204186     0.12500
N1631       N  0.69292844  0.65570653  0.93575458     0.61300
H1632       H  0.73548883  0.64781408  0.94685929     0.08600
O1633       O  0.80288156  0.65197083  0.09422470    -0.40200
O1634       O  0.80491044  0.67344018  0.03476236    -0.39400
O1635       O  0.75581419  0.59356193  0.90391266    -0.39400
O1636       O  0.76439489  0.56771859  0.95256112    -0.37100
O1637       O  0.69328767  0.67524120  0.95080941    -0.38000
O1638       O  0.68918899  0.65253460  0.89426007    -0.34100
O1639       O  0.73522279  0.59139730  0.08335536    -0.35500
O1640       O  0.72978497  0.56744964  0.02944049    -0.39800
loop_ 
_geom_bond_atom_site_label_1 
_geom_bond_atom_site_label_2 
_geom_bond_distance 
_geom_bond_site_symmetry_2 
_ccdc_geom_bond_type 
O1            C4   1.264       .  A
O1           Cd6   2.459   1_554  S
C2           O11   1.265   1_554  A
C2            O7   1.268       .  A
C2         C1589   1.475       .  S
O3            C9   1.267       .  A
O3           Cd6   2.489       .  S
C4           O12   1.267       .  A
C4         C1561   1.488       .  S
C5           O10   1.269       .  A
C5            O8   1.264   1_556  A
C5         C1617   1.487       .  S
Cd6          O13   2.458       .  S
Cd6          O12   2.480   1_556  S
Cd6          O11   2.406       .  S
Cd6           O7   2.470   1_556  S
Cd6          O10   2.480       .  S
Cd6           O8   2.450   1_556  S
C9           O13   1.264       .  A
C9         C1542   1.489       .  S
O14          C17   1.268       .  A
O14         Cd19   2.467       .  S
C15          O24   1.267       .  A
C15          O20   1.264       .  A
C15        C1449   1.488       .  S
O16          C22   1.268   1_554  A
O16         Cd19   2.500   1_554  S
C17          O25   1.265   1_556  A
C17        C1598   1.476       .  S
C18          O23   1.268       .  A
C18          O21   1.265       .  A
C18        C1477   1.484       .  S
Cd19         O26   2.428       .  S
Cd19         O25   2.408   1_556  S
Cd19         O24   2.477       .  S
Cd19         O20   2.448       .  S
Cd19         O23   2.481   1_556  S
Cd19         O21   2.454   1_556  S
C22          O26   1.263       .  A
C22        C1514   1.487       .  S
O27          C30   1.268   1_554  A
O27         Cd32   2.475   1_554  S
C28          O37   1.267       .  A
C28          O33   1.266       .  A
C28        C1365   1.497       .  S
O29          C35   1.270       .  A
O29         Cd32   2.511       .  S
C30          O38   1.264       .  A
C30        C1421   1.486       .  S
C31          O36   1.267       .  A
C31          O34   1.265       .  A
C31        C1393   1.496       .  S
Cd32         O39   2.416   1_556  S
Cd32         O38   2.443       .  S
Cd32         O37   2.506   1_556  S
Cd32         O33   2.478   1_556  S
Cd32         O36   2.490       .  S
Cd32         O34   2.487       .  S
C35          O39   1.264   1_556  A
C35        C1505   1.487       .  S
O40          C43   1.265       .  A
O40         Cd45   2.467       .  S
C41          O50   1.264   1_556  A
C41          O46   1.270       .  A
C41        C1430   1.486       .  S
O42          C48   1.266       .  A
O42         Cd45   2.482   1_554  S
C43          O51   1.267       .  A
C43        C1337   1.491       .  S
C44          O49   1.269   1_556  A
C44          O47   1.264       .  A
C44        C1626   1.485       .  S
Cd45         O52   2.470   1_556  S
Cd45         O51   2.486       .  S
Cd45         O50   2.434   1_556  S
Cd45         O46   2.491       .  S
Cd45         O49   2.472   1_556  S
Cd45         O47   2.445       .  S
C48          O52   1.266       .  A
C48        C1309   1.491       .  S
C53          C54   1.552       .  S
C53          C59   1.542       .  S
C53          C57   1.540       .  S
C53        C1281   1.547       .  S
C54          H61   1.078       .  S
C54          C55   1.371       .  D
C55          C56   1.541       .  S
C55        C1225   1.502       .  S
C56          C60   1.542       .  S
C56          C58   1.533       .  S
C56          H62   1.109       .  S
C57          H63   1.086       .  S
C57          C58   1.361       .  D
C58        C1253   1.479       .  S
C59          H64   1.083       .  S
C59          C60   1.371       .  D
C60        C1346   1.498       .  S
C65          C66   1.543       .  S
C65          C71   1.550       .  S
C65          C69   1.540       .  S
C65        C1290   1.542       .  S
C66          H73   1.085       .  S
C66          C67   1.364       .  D
C67          C68   1.535       .  S
C67        C1169   1.479       .  S
C68          C72   1.538       .  S
C68          C70   1.534       .  S
C68          H74   1.111       .  S
C69          H75   1.084       .  S
C69          C70   1.364       .  D
C70        C1197   1.486       .  S
C71          H76   1.080       .  S
C71          C72   1.369       .  D
C72        C1570   1.491       .  S
C77          C78   1.556       .  S
C77          C83   1.542       .  S
C77          C81   1.542       .  S
C77        C1141   1.555       .  S
C78          H85   1.080       .  S
C78          C79   1.370       .  D
C79          C80   1.538       .  S
C79        C1113   1.502       .  S
C80          C84   1.537       .  S
C80          C82   1.539       .  S
C80          H86   1.105       .  S
C81          H87   1.084       .  S
C81          C82   1.372       .  D
C82        C1262   1.501       .  S
C83          H88   1.086       .  S
C83          C84   1.367       .  D
C84        C1318   1.489       .  S
C89          C90   1.541       .  S
C89          C95   1.556       .  S
C89          C93   1.542       .  S
C89        C1150   1.553       .  S
C90          H97   1.085       .  S
C90          C91   1.365       .  D
C91          C92   1.539       .  S
C91        C1057   1.484       .  S
C92          C96   1.536       .  S
C92          C94   1.536       .  S
C92          H98   1.109       .  S
C93          H99   1.086       .  S
C93          C94   1.366       .  D
C94        C1085   1.487       .  S
C95         H100   1.080       .  S
C95          C96   1.373       .  D
C96        C1402   1.496       .  S
C101        C102   1.542   1_655  S
C101        C107   1.542       .  S
C101        C105   1.553       .  S
C101       C1029   1.552       .  S
C102        H109   1.085       .  S
C102        C103   1.365       .  D
C103        C104   1.540   1_455  S
C103       C1001   1.485       .  S
C104        C108   1.537       .  S
C104        C106   1.535       .  S
C104        H110   1.109       .  S
C105        H111   1.080       .  S
C105        C106   1.370       .  D
C106       C1206   1.489       .  S
C107        H112   1.086       .  S
C107        C108   1.369       .  D
C108       C1533   1.490       .  S
C113        C114   1.542   1_655  S
C113        C119   1.541       .  S
C113        C117   1.555       .  S
C113       C1038   1.553       .  S
C114        H121   1.083       .  S
C114        C115   1.373       .  D
C115        C116   1.547   1_455  S
C115        C945   1.507       .  S
C116        C120   1.537       .  S
C116        C118   1.532       .  S
C116        H122   1.108       .  S
C117        H123   1.079       .  S
C117        C118   1.368       .  D
C118        C973   1.491       .  S
C119        H124   1.086       .  S
C119        C120   1.367       .  D
C120       C1486   1.490       .  S
C125        C126   1.545   1_565  S
C125        C131   1.556       .  S
C125        C129   1.544       .  S
C125        C917   1.556       .  S
C126        H133   1.085       .  S
C126        C127   1.373       .  D
C127        C128   1.538   1_545  S
C127        C889   1.496       .  S
C128        C132   1.530       .  S
C128        C130   1.535       .  S
C128        H134   1.106       .  S
C129        H135   1.085       .  S
C129        C130   1.367       .  D
C130       C1094   1.484       .  S
C131        H136   1.080       .  S
C131        C132   1.367       .  D
C132       C1374   1.493       .  S
C137        C138   1.551       .  S
C137        C143   1.546   1_545  S
C137        C141   1.549   1_545  S
C137        C926   1.555       .  S
C138        H145   1.081       .  S
C138        C139   1.363       .  D
C139        C140   1.531       .  S
C139        C861   1.480       .  S
C140        C144   1.538   1_545  S
C140        C142   1.535   1_545  S
C140        H146   1.108   1_545  S
C141        H147   1.085       .  S
C141        C142   1.371       .  D
C142        C982   1.498       .  S
C143        H148   1.084       .  S
C143        C144   1.372       .  D
C144       C1458   1.495       .  S
O149        C152   1.266       .  A
O149       Cd154   2.469       .  S
C150        O159   1.263   1_556  A
C150        O155   1.268       .  A
C150        C805   1.482   1_556  S
O151        C157   1.269   1_554  A
O151       Cd154   2.491   1_554  S
C152        O160   1.266       .  A
C152        C777   1.492       .  S
C153        O158   1.267       .  A
C153        O156   1.265       .  A
C153        C758   1.489       .  S
Cd154       O161   2.420       .  S
Cd154       O160   2.484       .  S
Cd154       O159   2.404   1_556  S
Cd154       O155   2.499       .  S
Cd154       O158   2.467   1_556  S
Cd154       O156   2.464   1_556  S
C157        O161   1.265       .  A
C157        C833   1.483       .  S
O162        C165   1.266       .  A
O162       Cd167   2.482   1_556  S
C163        O172   1.264       .  A
C163        O168   1.270       .  A
C163        C721   1.486       .  S
O164        C170   1.269       .  A
O164       Cd167   2.479       .  S
C165        O173   1.267       .  A
C165        C674   1.495       .  S
C166        O171   1.266       .  A
C166        O169   1.267       .  A
C166        C693   1.492       .  S
Cd167       O174   2.407       .  S
Cd167       O173   2.483   1_554  S
Cd167       O172   2.437       .  S
Cd167       O168   2.478       .  S
Cd167       O171   2.472       .  S
Cd167       O169   2.481       .  S
C170        O174   1.263       .  A
C170        C814   1.482       .  S
O175        C178   1.264       .  A
O175       Cd180   2.462   1_556  S
C176        O185   1.265       .  A
C176        O181   1.266   1_554  A
C176        C637   1.481       .  S
O177        C183   1.269       .  A
O177       Cd180   2.508       .  S
C178        O186   1.267       .  A
C178        C590   1.485       .  S
C179        O184   1.266       .  A
C179        O182   1.264       .  A
C179        C618   1.489       .  S
Cd180       O187   2.427   1_554  S
Cd180       O186   2.465   1_554  S
Cd180       O185   2.432       .  S
Cd180       O181   2.464   1_554  S
Cd180       O184   2.467       .  S
Cd180       O182   2.481       .  S
C183        O187   1.264   1_554  A
C183        C730   1.487       .  S
O188        C191   1.265       .  A
O188       Cd193   2.464   1_554  S
C189        O198   1.266       .  A
C189        O194   1.270   1_556  A
C189        C646   1.482       .  S
O190        C196   1.269       .  A
O190       Cd193   2.477       .  S
C191        O199   1.264       .  A
C191        C562   1.489       .  S
C192        O197   1.267       .  A
C192        O195   1.262       .  A
C192        C525   1.477       .  S
Cd193       O200   2.429   1_556  S
Cd193       O199   2.473   1_556  S
Cd193       O198   2.438       .  S
Cd193       O194   2.444   1_556  S
Cd193       O197   2.515       .  S
Cd193       O195   2.439       .  S
C196        O200   1.262   1_556  A
C196        C842   1.480       .  S
C201        C202   1.554       .  S
C201        C207   1.547       .  S
C201        C205   1.543       .  S
C201        C497   1.554       .  S
C202        H209   1.078       .  S
C202        C203   1.371       .  D
C203        C204   1.537       .  S
C203        C786   1.500       .  S
C204        C208   1.540       .  S
C204        C206   1.533       .  S
C204        H210   1.108       .  S
C205        H211   1.086       .  S
C205        C206   1.364       .  D
C206        C469   1.482       .  S
C207        H212   1.083       .  S
C207        C208   1.372       .  D
C208       C1010   1.503       .  S
C213        C214   1.550       .  S
C213        C219   1.544       .  S
C213        C217   1.545       .  S
C213        C506   1.556       .  S
C214        H221   1.080       .  S
C214        C215   1.365       .  D
C215        C216   1.538       .  S
C215        C553   1.491       .  S
C216        C220   1.542       .  S
C216        C218   1.539       .  S
C216        H222   1.107       .  S
C217        H223   1.086       .  S
C217        C218   1.373       .  D
C218        C441   1.500       .  S
C219        H224   1.085       .  S
C219        C220   1.367       .  D
C220       C1122   1.491       .  S
C225        C226   1.544       .  S
C225        C231   1.538       .  S
C225        C229   1.558       .  S
C225        C422   1.554       .  S
C226        H233   1.084       .  S
C226        C227   1.369       .  D
C227        C228   1.537       .  S
C227        C609   1.494       .  S
C228        C232   1.541       .  S
C228        C230   1.534       .  S
C228        H234   1.108       .  S
C229        H235   1.082       .  S
C229        C230   1.373       .  D
C230        C385   1.495       .  S
C231        H236   1.086       .  S
C231        C232   1.366       .  D
C232        C898   1.489       .  S
C237        C238   1.542       .  S
C237        C243   1.556       .  S
C237        C241   1.547       .  S
C237        C413   1.555       .  S
C238        H245   1.085       .  S
C238        C239   1.366       .  D
C239        C240   1.531       .  S
C239        C534   1.485       .  S
C240        C244   1.536       .  S
C240        C242   1.532       .  S
C240        H246   1.107       .  S
C241        H247   1.085       .  S
C241        C242   1.368       .  D
C242        C450   1.490       .  S
C243        H248   1.081       .  S
C243        C244   1.374       .  D
C244       C1234   1.497       .  S
C249        C250   1.554       .  S
C249        C255   1.540   1_545  S
C249        C253   1.544       .  S
C249        C366   1.551       .  S
C250        H257   1.080       .  S
C250        C251   1.369       .  D
C251        C252   1.536       .  S
C251        C702   1.494       .  S
C252        C256   1.539   1_545  S
C252        C254   1.535       .  S
C252        H258   1.107       .  S
C253        H259   1.086       .  S
C253        C254   1.372       .  D
C254        C338   1.495       .  S
C255        H260   1.085       .  S
C255        C256   1.362       .  D
C256        C954   1.480       .  S
C261        C262   1.546       .  S
C261        C267   1.544   1_545  S
C261        C265   1.543       .  S
C261        C357   1.554       .  S
C262        H269   1.080       .  S
C262        C263   1.360       .  D
C263        C264   1.537       .  S
C263        C581   1.483       .  S
C264        C268   1.548   1_545  S
C264        C266   1.544       .  S
C264        H270   1.103       .  S
C265        H271   1.086       .  S
C265        C266   1.372       .  D
C266        C394   1.509       .  S
C267        H272   1.084       .  S
C267        C268   1.373       .  D
C268       C1066   1.505       .  S
C273        C274   1.554   1_655  S
C273        C279   1.544       .  S
C273        C277   1.544   1_655  S
C273        C301   1.559       .  S
C274        H281   1.079       .  S
C274        C275   1.368       .  D
C275        C276   1.536       .  S
C275        C665   1.497       .  S
C276        C280   1.540   1_455  S
C276        C278   1.536       .  S
C276        H282   1.105       .  S
C277        H283   1.086       .  S
C277        C278   1.368       .  D
C278        C329   1.491       .  S
C279        H284   1.085       .  S
C279        C280   1.373       .  D
C280        C870   1.498       .  S
C285        C286   1.553   1_655  S
C285        C291   1.553       .  S
C285        C289   1.545   1_655  S
C285        C310   1.558       .  S
C286        H293   1.083       .  S
C286        C287   1.366       .  D
C287        C288   1.526       .  S
C287        C749   1.484       .  S
C288        C292   1.534   1_455  S
C288        C290   1.528       .  S
C288        H294   1.106       .  S
C289        H295   1.086       .  S
C289        C290   1.370       .  D
C290        C478   1.486       .  S
C291        H296   1.083       .  S
C291        C292   1.375       .  D
C292       C1178   1.501       .  S
C297        C298   1.407       .  A
C297        C302   1.413       .  A
C297        H307   1.083       .  S
C298        C303   1.512       .  S
C298        C299   1.412       .  A
C299        C300   1.406   1_655  A
C299        N304   1.430   1_655  S
C300        C301   1.415   1_455  A
C300        H305   1.074       .  S
C301        C302   1.424       .  A
C302        N306   1.430       .  S
C303        C308   1.412   1_655  A
C303        C312   1.406       .  A
N304        O319   1.262   1_455  A
N304        O320   1.262       .  A
N306        O317   1.262   1_655  A
N306        O318   1.262       .  A
C308        C309   1.409       .  A
C308        N313   1.429       .  S
C309        C310   1.416   1_455  A
C309        H314   1.080       .  S
C310        C311   1.424       .  A
C311        C312   1.411       .  A
C311        N315   1.430       .  S
C312        H316   1.083       .  S
N313        O323   1.262       .  A
N313        O324   1.262       .  A
N315        O321   1.262       .  A
N315        O322   1.262       .  A
C325        C326   1.400       .  A
C325        C330   1.402       .  A
C325        H335   1.084       .  S
C326        C331   1.481       .  S
C326        C327   1.407       .  A
C327        C328   1.404       .  A
C327        N332   1.428       .  S
C328        C329   1.406       .  A
C328        H333   1.084       .  S
C329        C330   1.414       .  A
C330        N334   1.429       .  S
C331        C336   1.406       .  A
C331        C340   1.400       .  A
N332        O347   1.262       .  A
N332        O348   1.261       .  A
N334        O345   1.261       .  A
N334        O346   1.262       .  A
C336        C337   1.401       .  A
C336        N341   1.428       .  S
C337        C338   1.407       .  A
C337        H342   1.083       .  S
C338        C339   1.417       .  A
C339        C340   1.405       .  A
C339        N343   1.428       .  S
C340        H344   1.084       .  S
N341        O351   1.262       .  A
N341        O352   1.262       .  A
N343        O349   1.262       .  A
N343        O350   1.261       .  A
C353        C354   1.403   1_565  A
C353        C358   1.409       .  A
C353        H363   1.084       .  S
C354        C359   1.497       .  S
C354        C355   1.406       .  A
C355        C356   1.403       .  A
C355        N360   1.430       .  S
C356        C357   1.417       .  A
C356        H361   1.075       .  S
C357        C358   1.424   1_545  A
C358        N362   1.430       .  S
C359        C364   1.407       .  A
C359        C368   1.402   1_545  A
N360        O375   1.262       .  A
N360        O376   1.262       .  A
N362        O373   1.262       .  A
N362        O374   1.262       .  A
C364        C365   1.405       .  A
C364        N369   1.429       .  S
C365        C366   1.415       .  A
C365        H370   1.076       .  S
C366        C367   1.424   1_545  A
C367        C368   1.407       .  A
C367        N371   1.431       .  S
C368        H372   1.084       .  S
N369        O379   1.262       .  A
N369        O380   1.262       .  A
N371        O377   1.262       .  A
N371        O378   1.262   1_565  A
C381        C382   1.403       .  A
C381        C386   1.406       .  A
C381        H391   1.084       .  S
C382        C387   1.491       .  S
C382        C383   1.411       .  A
C383        C384   1.405       .  A
C383        N388   1.429       .  S
C384        C385   1.406       .  A
C384        H389   1.083       .  S
C385        C386   1.414       .  A
C386        N390   1.429       .  S
C387        C392   1.409       .  A
C387        C396   1.398       .  A
N388        O403   1.262       .  A
N388        O404   1.262       .  A
N390        O401   1.262       .  A
N390        O402   1.261       .  A
C392        C393   1.408       .  A
C392        N397   1.429       .  S
C393        C394   1.411       .  A
C393        H398   1.083       .  S
C394        C395   1.421       .  A
C395        C396   1.404       .  A
C395        N399   1.428       .  S
C396        H400   1.084       .  S
N397        O407   1.262       .  A
N397        O408   1.262       .  A
N399        O405   1.261       .  A
N399        O406   1.262       .  A
C409        C410   1.402       .  A
C409        C414   1.407       .  A
C409        H419   1.084       .  S
C410        C415   1.504       .  S
C410        C411   1.411       .  A
C411        C412   1.411       .  A
C411        N416   1.429       .  S
C412        C413   1.415       .  A
C412        H417   1.077       .  S
C413        C414   1.425       .  A
C414        N418   1.431       .  S
C415        C420   1.411       .  A
C415        C424   1.403       .  A
N416        O431   1.262       .  A
N416        O432   1.262       .  A
N418        O429   1.262       .  A
N418        O430   1.262       .  A
C420        C421   1.408       .  A
C420        N425   1.429       .  S
C421        C422   1.413       .  A
C421        H426   1.078       .  S
C422        C423   1.426       .  A
C423        C424   1.410       .  A
C423        N427   1.431       .  S
C424        H428   1.083       .  S
N425        O435   1.262       .  A
N425        O436   1.262       .  A
N427        O433   1.262       .  A
N427        O434   1.262       .  A
C437        C438   1.396       .  A
C437        C442   1.401       .  A
C437        H447   1.084       .  S
C438        C443   1.482       .  S
C438        C439   1.407       .  A
C439        C440   1.406       .  A
C439        N444   1.428       .  S
C440        C441   1.409       .  A
C440        H445   1.083       .  S
C441        C442   1.420       .  A
C442        N446   1.427       .  S
C443        C448   1.408       .  A
C443        C452   1.400       .  A
N444        O459   1.262       .  A
N444        O460   1.262       .  A
N446        O457   1.261       .  A
N446        O458   1.262       .  A
C448        C449   1.403       .  A
C448        N453   1.428       .  S
C449        C450   1.405       .  A
C449        H454   1.084       .  S
C450        C451   1.414       .  A
C451        C452   1.403       .  A
C451        N455   1.431       .  S
C452        H456   1.084       .  S
N453        O463   1.262       .  A
N453        O464   1.262       .  A
N455        O461   1.262       .  A
N455        O462   1.262       .  A
C465        C466   1.402       .  A
C465        C470   1.401       .  A
C465        H475   1.084       .  S
C466        C471   1.486       .  S
C466        C467   1.414       .  A
C467        C468   1.405       .  A
C467        N472   1.430       .  S
C468        C469   1.401       .  A
C468        H473   1.083       .  S
C469        C470   1.409       .  A
C470        N474   1.428       .  S
C471        C476   1.409       .  A
C471        C480   1.406       .  A
N472        O487   1.262       .  A
N472        O488   1.262       .  A
N474        O485   1.262       .  A
N474        O486   1.261       .  A
C476        C477   1.400       .  A
C476        N481   1.431       .  S
C477        C478   1.405       .  A
C477        H482   1.084       .  S
C478        C479   1.412       .  A
C479        C480   1.406       .  A
C479        N483   1.434       .  S
C480        H484   1.084       .  S
N481        O491   1.262       .  A
N481        O492   1.262       .  A
N483        O489   1.262       .  A
N483        O490   1.262       .  A
C493        C494   1.406       .  A
C493        C498   1.408       .  A
C493        H503   1.083       .  S
C494        C499   1.509       .  S
C494        C495   1.413       .  A
C495        C496   1.408       .  A
C495        N500   1.429       .  S
C496        C497   1.415       .  A
C496        H501   1.076       .  S
C497        C498   1.422       .  A
C498        N502   1.430       .  S
C499        C504   1.412       .  A
C499        C508   1.407       .  A
N500        O515   1.262       .  A
N500        O516   1.262       .  A
N502        O513   1.262       .  A
N502        O514   1.262       .  A
C504        C505   1.404       .  A
C504        N509   1.430       .  S
C505        C506   1.415       .  A
C505        H510   1.077       .  S
C506        C507   1.422       .  A
C507        C508   1.412       .  A
C507        N511   1.431       .  S
C508        H512   1.082       .  S
N509        O519   1.262       .  A
N509        O520   1.262       .  A
N511        O517   1.262       .  A
N511        O518   1.262       .  A
C521        C522   1.409       .  A
C521        C526   1.407       .  A
C521        H531   1.083       .  S
C522        C527   1.492       .  S
C522        C523   1.412       .  A
C523        C524   1.398       .  A
C523        N528   1.431       .  S
C524        C525   1.401       .  A
C524        H529   1.084       .  S
C525        C526   1.408       .  A
C526        N530   1.429       .  S
C527        C532   1.411       .  A
C527        C536   1.407       .  A
N528        O543   1.262       .  A
N528        O544   1.262       .  A
N530        O541   1.262       .  A
N530        O542   1.262       .  A
C532        C533   1.402       .  A
C532        N537   1.429       .  S
C533        C534   1.405       .  A
C533        H538   1.084       .  S
C534        C535   1.409       .  A
C535        C536   1.401       .  A
C535        N539   1.430       .  S
C536        H540   1.083       .  S
N537        O547   1.262       .  A
N537        O548   1.262       .  A
N539        O545   1.261       .  A
N539        O546   1.262       .  A
C549        C550   1.402       .  A
C549        C554   1.400       .  A
C549        H559   1.084       .  S
C550        C555   1.486       .  S
C550        C551   1.409       .  A
C551        C552   1.403       .  A
C551        N556   1.428       .  S
C552        C553   1.403       .  A
C552        H557   1.082       .  S
C553        C554   1.418       .  A
C554        N558   1.431       .  S
C555        C560   1.410       .  A
C555        C564   1.402       .  A
N556        O571   1.262       .  A
N556        O572   1.262       .  A
N558        O569   1.262       .  A
N558        O570   1.262       .  A
C560        C561   1.401       .  A
C560        N565   1.430       .  S
C561        C562   1.407       .  A
C561        H566   1.084       .  S
C562        C563   1.416       .  A
C563        C564   1.402       .  A
C563        N567   1.429       .  S
C564        H568   1.084       .  S
N565        O575   1.262       .  A
N565        O576   1.262       .  A
N567        O573   1.262       .  A
N567        O574   1.262       .  A
C577        C578   1.405       .  A
C577        C582   1.406       .  A
C577        H587   1.083       .  S
C578        C583   1.487       .  S
C578        C579   1.410       .  A
C579        C580   1.397       .  A
C579        N584   1.429       .  S
C580        C581   1.402       .  A
C580        H585   1.084       .  S
C581        C582   1.412       .  A
C582        N586   1.433   1_545  S
C583        C588   1.411       .  A
C583        C592   1.403       .  A
N584        O599   1.262       .  A
N584        O600   1.261       .  A
N586        O597   1.263       .  A
N586        O598   1.262       .  A
C588        C589   1.400       .  A
C588        N593   1.430       .  S
C589        C590   1.405       .  A
C589        H594   1.084       .  S
C590        C591   1.414       .  A
C591        C592   1.402       .  A
C591        N595   1.429       .  S
C592        H596   1.083       .  S
N593        O603   1.262       .  A
N593        O604   1.262       .  A
N595        O601   1.262       .  A
N595        O602   1.262       .  A
C605        C606   1.402       .  A
C605        C610   1.400       .  A
C605        H615   1.086       .  S
C606        C611   1.485       .  S
C606        C607   1.408       .  A
C607        C608   1.400       .  A
C607        N612   1.429       .  S
C608        C609   1.404       .  A
C608        H613   1.104       .  S
C609        C610   1.415       .  A
C610        N614   1.428       .  S
C611        C616   1.409       .  A
C611        C620   1.402       .  A
N612        O627   1.262       .  A
N612        O628   1.262       .  A
N614        O625   1.262       .  A
N614        O626   1.262       .  A
C616        C617   1.399       .  A
C616        N621   1.429       .  S
C617        C618   1.405       .  A
C617        H622   1.084       .  S
C618        C619   1.417       .  A
C619        C620   1.404       .  A
C619        N623   1.429       .  S
C620        H624   1.084       .  S
N621        O631   1.262       .  A
N621        O632   1.262       .  A
N623        O629   1.262       .  A
N623        O630   1.262       .  A
C633        C634   1.399   1_556  A
C633        C638   1.400       .  A
C633        H643   1.084       .  S
C634        C639   1.470       .  S
C634        C635   1.404       .  A
C635        C636   1.396       .  A
C635        N640   1.429       .  S
C636        C637   1.407       .  A
C636        H641   1.084       .  S
C637        C638   1.415   1_554  A
C638        N642   1.429       .  S
C639        C644   1.404       .  A
C639        C648   1.398   1_554  A
N640        O655   1.262       .  A
N640        O656   1.261       .  A
N642        O653   1.262       .  A
N642        O654   1.262       .  A
C644        C645   1.398       .  A
C644        N649   1.429       .  S
C645        C646   1.406   1_554  A
C645        H650   1.083       .  S
C646        C647   1.417       .  A
C647        C648   1.399       .  A
C647        N651   1.429       .  S
C648        H652   1.084       .  S
N649        O659   1.262       .  A
N649        O660   1.261       .  A
N651        O657   1.262       .  A
N651        O658   1.262       .  A
C661        C662   1.403       .  A
C661        C666   1.407       .  A
C661        H671   1.084       .  S
C662        C667   1.489       .  S
C662        C663   1.409       .  A
C663        C664   1.401       .  A
C663        N668   1.429       .  S
C664        C665   1.406       .  A
C664        H669   1.083       .  S
C665        C666   1.415       .  A
C666        N670   1.430   1_455  S
C667        C672   1.408       .  A
C667        C676   1.402       .  A
N668        O683   1.262       .  A
N668        O684   1.262       .  A
N670        O681   1.262       .  A
N670        O682   1.262       .  A
C672        C673   1.405       .  A
C672        N677   1.429       .  S
C673        C674   1.409       .  A
C673        H678   1.083       .  S
C674        C675   1.417       .  A
C675        C676   1.403       .  A
C675        N679   1.428       .  S
C676        H680   1.084       .  S
N677        O687   1.262   1_455  A
N677        O688   1.262       .  A
N679        O685   1.262       .  A
N679        O686   1.262       .  A
C689        C690   1.402       .  A
C689        C694   1.404       .  A
C689        H699   1.084       .  S
C690        C695   1.489       .  S
C690        C691   1.410       .  A
C691        C692   1.403       .  A
C691        N696   1.430       .  S
C692        C693   1.407       .  A
C692        H697   1.084       .  S
C693        C694   1.417       .  A
C694        N698   1.429       .  S
C695        C700   1.410       .  A
C695        C704   1.403       .  A
N696        O711   1.262       .  A
N696        O712   1.262       .  A
N698        O709   1.262       .  A
N698        O710   1.262       .  A
C700        C701   1.404       .  A
C700        N705   1.429       .  S
C701        C702   1.405       .  A
C701        H706   1.083       .  S
C702        C703   1.415       .  A
C703        C704   1.402       .  A
C703        N707   1.430       .  S
C704        H708   1.084       .  S
N705        O715   1.262       .  A
N705        O716   1.262       .  A
N707        O713   1.262       .  A
N707        O714   1.262       .  A
C717        C718   1.398       .  A
C717        C722   1.400       .  A
C717        H727   1.084       .  S
C718        C723   1.477       .  S
C718        C719   1.406       .  A
C719        C720   1.401       .  A
C719        N724   1.428   1_554  S
C720        C721   1.407       .  A
C720        H725   1.083   1_554  S
C721        C722   1.418       .  A
C722        N726   1.429       .  S
C723        C728   1.404   1_554  A
C723        C732   1.401       .  A
N724        O739   1.262   1_556  A
N724        O740   1.262       .  A
N726        O737   1.262       .  A
N726        O738   1.262       .  A
C728        C729   1.397       .  A
C728        N733   1.429       .  S
C729        C730   1.407   1_556  A
C729        H734   1.084       .  S
C730        C731   1.416       .  A
C731        C732   1.405       .  A
C731        N735   1.428       .  S
C732        H736   1.084       .  S
N733        O743   1.262       .  A
N733        O744   1.262       .  A
N735        O741   1.262       .  A
N735        O742   1.262       .  A
C745        C746   1.404       .  A
C745        C750   1.402       .  A
C745        H755   1.084       .  S
C746        C751   1.484       .  S
C746        C747   1.408       .  A
C747        C748   1.402       .  A
C747        N752   1.428   1_455  S
C748        C749   1.404       .  A
C748        H753   1.084   1_455  S
C749        C750   1.410       .  A
C750        N754   1.429       .  S
C751        C756   1.409       .  A
C751        C760   1.401       .  A
N752        O767   1.262       .  A
N752        O768   1.262   1_655  A
N754        O765   1.262       .  A
N754        O766   1.262       .  A
C756        C757   1.402       .  A
C756        N761   1.429       .  S
C757        C758   1.407       .  A
C757        H762   1.084       .  S
C758        C759   1.417       .  A
C759        C760   1.402       .  A
C759        N763   1.429       .  S
C760        H764   1.084       .  S
N761        O771   1.262       .  A
N761        O772   1.262       .  A
N763        O769   1.262       .  A
N763        O770   1.262       .  A
C773        C774   1.404       .  A
C773        C778   1.401       .  A
C773        H783   1.084       .  S
C774        C779   1.492       .  S
C774        C775   1.414       .  A
C775        C776   1.405       .  A
C775        N780   1.433       .  S
C776        C777   1.408       .  A
C776        H781   1.083       .  S
C777        C778   1.414       .  A
C778        N782   1.428       .  S
C779        C784   1.412       .  A
C779        C788   1.404       .  A
N780        O795   1.262       .  A
N780        O796   1.262       .  A
N782        O793   1.262       .  A
N782        O794   1.262       .  A
C784        C785   1.403       .  A
C784        N789   1.433       .  S
C785        C786   1.409       .  A
C785        H790   1.082       .  S
C786        C787   1.415       .  A
C787        C788   1.402       .  A
C787        N791   1.430       .  S
C788        H792   1.084       .  S
N789        O799   1.262       .  A
N789        O800   1.263       .  A
N791        O797   1.262       .  A
N791        O798   1.262       .  A
C801        C802   1.402   1_556  A
C801        C806   1.404       .  A
C801        H811   1.084       .  S
C802        C807   1.476       .  S
C802        C803   1.406       .  A
C803        C804   1.393       .  A
C803        N808   1.430       .  S
C804        C805   1.406       .  A
C804        H809   1.084       .  S
C805        C806   1.414   1_554  A
C806        N810   1.428       .  S
C807        C812   1.407       .  A
C807        C816   1.398   1_554  A
N808        O823   1.262       .  A
N808        O824   1.262       .  A
N810        O821   1.262       .  A
N810        O822   1.262       .  A
C812        C813   1.402       .  A
C812        N817   1.428       .  S
C813        C814   1.407       .  A
C813        H818   1.083       .  S
C814        C815   1.416   1_554  A
C815        C816   1.394       .  A
C815        N819   1.429       .  S
C816        H820   1.084       .  S
N817        O827   1.262       .  A
N817        O828   1.262       .  A
N819        O825   1.262       .  A
N819        O826   1.262       .  A
C829        C830   1.400   1_554  A
C829        C834   1.403       .  A
C829        H839   1.084       .  S
C830        C835   1.473       .  S
C830        C831   1.404       .  A
C831        C832   1.396       .  A
C831        N836   1.429       .  S
C832        C833   1.407       .  A
C832        H837   1.084       .  S
C833        C834   1.415   1_556  A
C834        N838   1.428       .  S
C835        C840   1.405       .  A
C835        C844   1.398   1_556  A
N836        O851   1.262       .  A
N836        O852   1.262       .  A
N838        O849   1.262       .  A
N838        O850   1.262       .  A
C840        C841   1.400       .  A
C840        N845   1.428       .  S
C841        C842   1.405       .  A
C841        H846   1.084       .  S
C842        C843   1.417   1_556  A
C843        C844   1.399       .  A
C843        N847   1.429       .  S
C844        H848   1.084       .  S
N845        O855   1.262       .  A
N845        O856   1.261       .  A
N847        O853   1.262       .  A
N847        O854   1.262       .  A
C857        C858   1.407       .  A
C857        C862   1.404       .  A
C857        H867   1.083       .  S
C858        C863   1.497       .  S
C858        C859   1.417       .  A
C859        C860   1.403       .  A
C859        N864   1.430       .  S
C860        C861   1.399       .  A
C860        H865   1.084       .  S
C861        C862   1.407       .  A
C862        N866   1.429       .  S
C863        C868   1.414       .  A
C863        C872   1.403       .  A
N864        O879   1.262       .  A
N864        O880   1.262       .  A
N866        O877   1.262       .  A
N866        O878   1.262       .  A
C868        C869   1.405       .  A
C868        N873   1.429       .  S
C869        C870   1.406       .  A
C869        H874   1.083       .  S
C870        C871   1.416       .  A
C871        C872   1.402       .  A
C871        N875   1.428       .  S
C872        H876   1.083       .  S
N873        O883   1.262       .  A
N873        O884   1.262       .  A
N875        O881   1.261       .  A
N875        O882   1.262   1_655  A
C885        C886   1.398       .  A
C885        C890   1.401       .  A
C885        H895   1.084       .  S
C886        C891   1.480       .  S
C886        C887   1.406       .  A
C887        C888   1.403       .  A
C887        N892   1.428       .  S
C888        C889   1.408       .  A
C888        H893   1.083       .  S
C889        C890   1.417       .  A
C890        N894   1.428       .  S
C891        C896   1.406       .  A
C891        C900   1.402       .  A
N892        O907   1.261       .  A
N892        O908   1.262       .  A
N894        O905   1.262   1_545  A
N894        O906   1.260       .  A
C896        C897   1.398       .  A
C896        N901   1.429       .  S
C897        C898   1.400       .  A
C897        H902   1.104       .  S
C898        C899   1.414       .  A
C899        C900   1.404       .  A
C899        N903   1.429       .  S
C900        H904   1.086       .  S
N901        O911   1.262       .  A
N901        O912   1.262       .  A
N903        O909   1.261       .  A
N903        O910   1.262       .  A
C913        C914   1.401       .  A
C913        C918   1.411       .  A
C913        H923   1.084       .  S
C914        C919   1.494       .  S
C914        C915   1.404   1_545  A
C915        C916   1.404       .  A
C915        N920   1.429       .  S
C916        C917   1.417       .  A
C916        H921   1.075       .  S
C917        C918   1.425   1_565  A
C918        N922   1.430       .  S
C919        C924   1.405       .  A
C919        C928   1.399   1_545  A
N920        O935   1.262       .  A
N920        O936   1.262   1_565  A
N922        O933   1.261       .  A
N922        O934   1.262       .  A
C924        C925   1.408       .  A
C924        N929   1.429       .  S
C925        C926   1.418       .  A
C925        H930   1.076       .  S
C926        C927   1.424   1_545  A
C927        C928   1.407       .  A
C927        N931   1.428       .  S
C928        H932   1.084       .  S
N929        O939   1.262       .  A
N929        O940   1.262       .  A
N931        O937   1.261       .  A
N931        O938   1.262       .  A
C941        C942   1.405       .  A
C941        C946   1.409       .  A
C941        H951   1.083       .  S
C942        C947   1.493       .  S
C942        C943   1.407       .  A
C943        C944   1.397       .  A
C943        N948   1.429       .  S
C944        C945   1.404       .  A
C944        H949   1.075       .  S
C945        C946   1.422       .  A
C946        N950   1.429       .  S
C947        C952   1.413       .  A
C947        C956   1.407       .  A
N948        O963   1.262       .  A
N948        O964   1.262       .  A
N950        O961   1.262       .  A
N950        O962   1.262       .  A
C952        C953   1.403       .  A
C952        N957   1.429       .  S
C953        C954   1.400       .  A
C953        H958   1.082       .  S
C954        C955   1.406       .  A
C955        C956   1.403       .  A
C955        N959   1.429       .  S
C956        H960   1.083       .  S
N957        O967   1.262       .  A
N957        O968   1.262       .  A
N959        O965   1.262       .  A
N959        O966   1.262       .  A
C969        C970   1.401       .  A
C969        C974   1.403       .  A
C969        H979   1.084       .  S
C970        C975   1.482       .  S
C970        C971   1.407       .  A
C971        C972   1.403       .  A
C971        N976   1.428       .  S
C972        C973   1.406       .  A
C972        H977   1.084       .  S
C973        C974   1.414       .  A
C974        N978   1.429       .  S
C975        C980   1.408       .  A
C975        C984   1.397       .  A
N976        O991   1.262       .  A
N976        O992   1.262       .  A
N978        O989   1.262       .  A
N978        O990   1.261       .  A
C980        C981   1.405       .  A
C980        N985   1.428       .  S
C981        C982   1.407       .  A
C981        H986   1.083       .  S
C982        C983   1.418       .  A
C983        C984   1.401       .  A
C983        N987   1.428       .  S
C984        H988   1.084       .  S
N985        O995   1.262       .  A
N985        O996   1.262       .  A
N987        O993   1.261       .  A
N987        O994   1.262       .  A
C997        C998   1.407       .  A
C997       C1002   1.403       .  A
C997       H1007   1.083       .  S
C998       C1003   1.497       .  S
C998        C999   1.414       .  A
C999       C1000   1.405       .  A
C999       N1004   1.429       .  S
C1000      C1001   1.400       .  A
C1000      H1005   1.080       .  S
C1001      C1002   1.407       .  A
C1002      N1006   1.428       .  S
C1003      C1008   1.411       .  A
C1003      C1012   1.407       .  A
N1004      O1019   1.262       .  A
N1004      O1020   1.262       .  A
N1006      O1017   1.261       .  A
N1006      O1018   1.262       .  A
C1008      C1009   1.400       .  A
C1008      N1013   1.430       .  S
C1009      C1010   1.406       .  A
C1009      H1014   1.081       .  S
C1010      C1011   1.417       .  A
C1011      C1012   1.410       .  A
C1011      N1015   1.429       .  S
C1012      H1016   1.083       .  S
N1013      O1023   1.262       .  A
N1013      O1024   1.262       .  A
N1015      O1021   1.262       .  A
N1015      O1022   1.262       .  A
C1025      C1026   1.399   1_455  A
C1025      C1030   1.407       .  A
C1025      H1035   1.084       .  S
C1026      C1031   1.491       .  S
C1026      C1027   1.405       .  A
C1027      C1028   1.406       .  A
C1027      N1032   1.429       .  S
C1028      C1029   1.416       .  A
C1028      H1033   1.075       .  S
C1029      C1030   1.424   1_655  A
C1030      N1034   1.430       .  S
C1031      C1036   1.404       .  A
C1031      C1040   1.400   1_655  A
N1032      O1047   1.262       .  A
N1032      O1048   1.262       .  A
N1034      O1045   1.262       .  A
N1034      O1046   1.262       .  A
C1036      C1037   1.404       .  A
C1036      N1041   1.429       .  S
C1037      C1038   1.416       .  A
C1037      H1042   1.076       .  S
C1038      C1039   1.426   1_655  A
C1039      C1040   1.410       .  A
C1039      N1043   1.431       .  S
C1040      H1044   1.084       .  S
N1041      O1051   1.262       .  A
N1041      O1052   1.262       .  A
N1043      O1049   1.262       .  A
N1043      O1050   1.262       .  A
C1053      C1054   1.404       .  A
C1053      C1058   1.401       .  A
C1053      H1063   1.084       .  S
C1054      C1059   1.490       .  S
C1054      C1055   1.414       .  A
C1055      C1056   1.407       .  A
C1055      N1060   1.431       .  S
C1056      C1057   1.403       .  A
C1056      H1061   1.084       .  S
C1057      C1058   1.405       .  A
C1058      N1062   1.427       .  S
C1059      C1064   1.408       .  A
C1059      C1068   1.403       .  A
N1060      O1075   1.262       .  A
N1060      O1076   1.262       .  A
N1062      O1073   1.262       .  A
N1062      O1074   1.262       .  A
C1064      C1065   1.403       .  A
C1064      N1069   1.430       .  S
C1065      C1066   1.407       .  A
C1065      H1070   1.077       .  S
C1066      C1067   1.418       .  A
C1067      C1068   1.407       .  A
C1067      N1071   1.429       .  S
C1068      H1072   1.084       .  S
N1069      O1079   1.262       .  A
N1069      O1080   1.262       .  A
N1071      O1077   1.262       .  A
N1071      O1078   1.262       .  A
C1081      C1082   1.409       .  A
C1081      C1086   1.409       .  A
C1081      H1091   1.082       .  S
C1082      C1087   1.502       .  S
C1082      C1083   1.414       .  A
C1083      C1084   1.401       .  A
C1083      N1088   1.430       .  S
C1084      C1085   1.402       .  A
C1084      H1089   1.083       .  S
C1085      C1086   1.414       .  A
C1086      N1090   1.439       .  S
C1087      C1092   1.416       .  A
C1087      C1096   1.410       .  A
N1088      O1103   1.262       .  A
N1088      O1104   1.262       .  A
N1090      O1101   1.263       .  A
N1090      O1102   1.261       .  A
C1092      C1093   1.400       .  A
C1092      N1097   1.431       .  S
C1093      C1094   1.400       .  A
C1093      H1098   1.084       .  S
C1094      C1095   1.409       .  A
C1095      C1096   1.406       .  A
C1095      N1099   1.430       .  S
C1096      H1100   1.082       .  S
N1097      O1107   1.262       .  A
N1097      O1108   1.262       .  A
N1099      O1105   1.261       .  A
N1099      O1106   1.261       .  A
C1109      C1110   1.405       .  A
C1109      C1114   1.409       .  A
C1109      H1119   1.084       .  S
C1110      C1115   1.497       .  S
C1110      C1111   1.412       .  A
C1111      C1112   1.406       .  A
C1111      N1116   1.431       .  S
C1112      C1113   1.406       .  A
C1112      H1117   1.083       .  S
C1113      C1114   1.415       .  A
C1114      N1118   1.429       .  S
C1115      C1120   1.414       .  A
C1115      C1124   1.405       .  A
N1116      O1131   1.262       .  A
N1116      O1132   1.262       .  A
N1118      O1129   1.262       .  A
N1118      O1130   1.262       .  A
C1120      C1121   1.407       .  A
C1120      N1125   1.431       .  S
C1121      C1122   1.402       .  A
C1121      H1126   1.084       .  S
C1122      C1123   1.413       .  A
C1123      C1124   1.410       .  A
C1123      N1127   1.433       .  S
C1124      H1128   1.084       .  S
N1125      O1135   1.262       .  A
N1125      O1136   1.262       .  A
N1127      O1133   1.262       .  A
N1127      O1134   1.262       .  A
C1137      C1138   1.399       .  A
C1137      C1142   1.407       .  A
C1137      H1147   1.084       .  S
C1138      C1143   1.495       .  S
C1138      C1139   1.406       .  A
C1139      C1140   1.408       .  A
C1139      N1144   1.428       .  S
C1140      C1141   1.416       .  A
C1140      H1145   1.076       .  S
C1141      C1142   1.426       .  A
C1142      N1146   1.429       .  S
C1143      C1148   1.406       .  A
C1143      C1152   1.400       .  A
N1144      O1159   1.262       .  A
N1144      O1160   1.262       .  A
N1146      O1157   1.262       .  A
N1146      O1158   1.261       .  A
C1148      C1149   1.407       .  A
C1148      N1153   1.428       .  S
C1149      C1150   1.416       .  A
C1149      H1154   1.076       .  S
C1150      C1151   1.424       .  A
C1151      C1152   1.407       .  A
C1151      N1155   1.430       .  S
C1152      H1156   1.084       .  S
N1153      O1163   1.262       .  A
N1153      O1164   1.262       .  A
N1155      O1161   1.262       .  A
N1155      O1162   1.262       .  A
C1165      C1166   1.408       .  A
C1165      C1170   1.405       .  A
C1165      H1175   1.083       .  S
C1166      C1171   1.496       .  S
C1166      C1167   1.416       .  A
C1167      C1168   1.401       .  A
C1167      N1172   1.430       .  S
C1168      C1169   1.398       .  A
C1168      H1173   1.083       .  S
C1169      C1170   1.407       .  A
C1170      N1174   1.429       .  S
C1171      C1176   1.413       .  A
C1171      C1180   1.402       .  A
N1172      O1187   1.262       .  A
N1172      O1188   1.262       .  A
N1174      O1185   1.262       .  A
N1174      O1186   1.262       .  A
C1176      C1177   1.406       .  A
C1176      N1181   1.429       .  S
C1177      C1178   1.407       .  A
C1177      H1182   1.083       .  S
C1178      C1179   1.420       .  A
C1179      C1180   1.401       .  A
C1179      N1183   1.430       .  S
C1180      H1184   1.083       .  S
N1181      O1191   1.262       .  A
N1181      O1192   1.262       .  A
N1183      O1189   1.261       .  A
N1183      O1190   1.262       .  A
C1193      C1194   1.399       .  A
C1193      C1198   1.400       .  A
C1193      H1203   1.084       .  S
C1194      C1199   1.475       .  S
C1194      C1195   1.405       .  A
C1195      C1196   1.401       .  A
C1195      N1200   1.428       .  S
C1196      C1197   1.405       .  A
C1196      H1201   1.081       .  S
C1197      C1198   1.414       .  A
C1198      N1202   1.429       .  S
C1199      C1204   1.406       .  A
C1199      C1208   1.397       .  A
N1200      O1215   1.262       .  A
N1200      O1216   1.261       .  A
N1202      O1213   1.261       .  A
N1202      O1214   1.262       .  A
C1204      C1205   1.400       .  A
C1204      N1209   1.428       .  S
C1205      C1206   1.405       .  A
C1205      H1210   1.084       .  S
C1206      C1207   1.416       .  A
C1207      C1208   1.401       .  A
C1207      N1211   1.426       .  S
C1208      H1212   1.084       .  S
N1209      O1219   1.262       .  A
N1209      O1220   1.262       .  A
N1211      O1217   1.262       .  A
N1211      O1218   1.262       .  A
C1221      C1222   1.401       .  A
C1221      C1226   1.406       .  A
C1221      H1231   1.084       .  S
C1222      C1227   1.487       .  S
C1222      C1223   1.407       .  A
C1223      C1224   1.403       .  A
C1223      N1228   1.429       .  S
C1224      C1225   1.407       .  A
C1224      H1229   1.081       .  S
C1225      C1226   1.419       .  A
C1226      N1230   1.431       .  S
C1227      C1232   1.408       .  A
C1227      C1236   1.401       .  A
N1228      O1243   1.262       .  A
N1228      O1244   1.262       .  A
N1230      O1241   1.262       .  A
N1230      O1242   1.262       .  A
C1232      C1233   1.404       .  A
C1232      N1237   1.428       .  S
C1233      C1234   1.407       .  A
C1233      H1238   1.083       .  S
C1234      C1235   1.416       .  A
C1235      C1236   1.403       .  A
C1235      N1239   1.429       .  S
C1236      H1240   1.084       .  S
N1237      O1247   1.262       .  A
N1237      O1248   1.262       .  A
N1239      O1245   1.261       .  A
N1239      O1246   1.262       .  A
C1249      C1250   1.403       .  A
C1249      C1254   1.400       .  A
C1249      H1259   1.084       .  S
C1250      C1255   1.487       .  S
C1250      C1251   1.412       .  A
C1251      C1252   1.403       .  A
C1251      N1256   1.429       .  S
C1252      C1253   1.401       .  A
C1252      H1257   1.083       .  S
C1253      C1254   1.407       .  A
C1254      N1258   1.426       .  S
C1255      C1260   1.409       .  A
C1255      C1264   1.401       .  A
N1256      O1271   1.262       .  A
N1256      O1272   1.262       .  A
N1258      O1269   1.261       .  A
N1258      O1270   1.261       .  A
C1260      C1261   1.400       .  A
C1260      N1265   1.430       .  S
C1261      C1262   1.408       .  A
C1261      H1266   1.083       .  S
C1262      C1263   1.420       .  A
C1263      C1264   1.402       .  A
C1263      N1267   1.429       .  S
C1264      H1268   1.084       .  S
N1265      O1275   1.262       .  A
N1265      O1276   1.262       .  A
N1267      O1273   1.262       .  A
N1267      O1274   1.261       .  A
C1277      C1278   1.395       .  A
C1277      C1282   1.401       .  A
C1277      H1287   1.084       .  S
C1278      C1283   1.484       .  S
C1278      C1279   1.404       .  A
C1279      C1280   1.405       .  A
C1279      N1284   1.428       .  S
C1280      C1281   1.416       .  A
C1280      H1285   1.076       .  S
C1281      C1282   1.424       .  A
C1282      N1286   1.427       .  S
C1283      C1288   1.405       .  A
C1283      C1292   1.399       .  A
N1284      O1299   1.262       .  A
N1284      O1300   1.262       .  A
N1286      O1297   1.261       .  A
N1286      O1298   1.261       .  A
C1288      C1289   1.402       .  A
C1288      N1293   1.429       .  S
C1289      C1290   1.414       .  A
C1289      H1294   1.077       .  S
C1290      C1291   1.424       .  A
C1291      C1292   1.404       .  A
C1291      N1295   1.431       .  S
C1292      H1296   1.084       .  S
N1293      O1303   1.262       .  A
N1293      O1304   1.262       .  A
N1295      O1301   1.262       .  A
N1295      O1302   1.262       .  A
C1305      C1306   1.403       .  A
C1305      C1310   1.403       .  A
C1305      H1315   1.084       .  S
C1306      C1311   1.485       .  S
C1306      C1307   1.408       .  A
C1307      C1308   1.403       .  A
C1307      N1312   1.430       .  S
C1308      C1309   1.408       .  A
C1308      H1313   1.084       .  S
C1309      C1310   1.415       .  A
C1310      N1314   1.429       .  S
C1311      C1316   1.410       .  A
C1311      C1320   1.401       .  A
N1312      O1327   1.262       .  A
N1312      O1328   1.262       .  A
N1314      O1325   1.262       .  A
N1314      O1326   1.262       .  A
C1316      C1317   1.404       .  A
C1316      N1321   1.429       .  S
C1317      C1318   1.404       .  A
C1317      H1322   1.084       .  S
C1318      C1319   1.415       .  A
C1319      C1320   1.402       .  A
C1319      N1323   1.431       .  S
C1320      H1324   1.084       .  S
N1321      O1331   1.262       .  A
N1321      O1332   1.262       .  A
N1323      O1329   1.262       .  A
N1323      O1330   1.262       .  A
C1333      C1334   1.402       .  A
C1333      C1338   1.400       .  A
C1333      H1343   1.084       .  S
C1334      C1339   1.483       .  S
C1334      C1335   1.407       .  A
C1335      C1336   1.404       .  A
C1335      N1340   1.429       .  S
C1336      C1337   1.410       .  A
C1336      H1341   1.083       .  S
C1337      C1338   1.415       .  A
C1338      N1342   1.428       .  S
C1339      C1344   1.408       .  A
C1339      C1348   1.399       .  A
N1340      O1355   1.262       .  A
N1340      O1356   1.262       .  A
N1342      O1353   1.262       .  A
N1342      O1354   1.262       .  A
C1344      C1345   1.405       .  A
C1344      N1349   1.429       .  S
C1345      C1346   1.409       .  A
C1345      H1350   1.083       .  S
C1346      C1347   1.417       .  A
C1347      C1348   1.398       .  A
C1347      N1351   1.427       .  S
C1348      H1352   1.084       .  S
N1349      O1359   1.262       .  A
N1349      O1360   1.262       .  A
N1351      O1357   1.261       .  A
N1351      O1358   1.262       .  A
C1361      C1362   1.402       .  A
C1361      C1366   1.405       .  A
C1361      H1371   1.084       .  S
C1362      C1367   1.490       .  S
C1362      C1363   1.409       .  A
C1363      C1364   1.405       .  A
C1363      N1368   1.429       .  S
C1364      C1365   1.409       .  A
C1364      H1369   1.083       .  S
C1365      C1366   1.417       .  A
C1366      N1370   1.428       .  S
C1367      C1372   1.413       .  A
C1367      C1376   1.403       .  A
N1368      O1383   1.262       .  A
N1368      O1384   1.262       .  A
N1370      O1381   1.262       .  A
N1370      O1382   1.262       .  A
C1372      C1373   1.404       .  A
C1372      N1377   1.431       .  S
C1373      C1374   1.404       .  A
C1373      H1378   1.084       .  S
C1374      C1375   1.413       .  A
C1375      C1376   1.405       .  A
C1375      N1379   1.430   1_565  S
C1376      H1380   1.084       .  S
N1377      O1387   1.262       .  A
N1377      O1388   1.262       .  A
N1379      O1385   1.262       .  A
N1379      O1386   1.262       .  A
C1389      C1390   1.401       .  A
C1389      C1394   1.405       .  A
C1389      H1399   1.084       .  S
C1390      C1395   1.489       .  S
C1390      C1391   1.409       .  A
C1391      C1392   1.405       .  A
C1391      N1396   1.430       .  S
C1392      C1393   1.408       .  A
C1392      H1397   1.083       .  S
C1393      C1394   1.418       .  A
C1394      N1398   1.429       .  S
C1395      C1400   1.410       .  A
C1395      C1404   1.402       .  A
N1396      O1411   1.262       .  A
N1396      O1412   1.262       .  A
N1398      O1409   1.262       .  A
N1398      O1410   1.262       .  A
C1400      C1401   1.401       .  A
C1400      N1405   1.430       .  S
C1401      C1402   1.405       .  A
C1401      H1406   1.084       .  S
C1402      C1403   1.416       .  A
C1403      C1404   1.407       .  A
C1403      N1407   1.428       .  S
C1404      H1408   1.084       .  S
N1405      O1415   1.262       .  A
N1405      O1416   1.262       .  A
N1407      O1413   1.261       .  A
N1407      O1414   1.262       .  A
C1417      C1418   1.399       .  A
C1417      C1422   1.399       .  A
C1417      H1427   1.084       .  S
C1418      C1423   1.476       .  S
C1418      C1419   1.406   1_556  A
C1419      C1420   1.402       .  A
C1419      N1424   1.429       .  S
C1420      C1421   1.407   1_554  A
C1420      H1425   1.083       .  S
C1421      C1422   1.417       .  A
C1422      N1426   1.429       .  S
C1423      C1428   1.407       .  A
C1423      C1432   1.397   1_556  A
N1424      O1439   1.262       .  A
N1424      O1440   1.262       .  A
N1426      O1437   1.262       .  A
N1426      O1438   1.262       .  A
C1428      C1429   1.404       .  A
C1428      N1433   1.428       .  S
C1429      C1430   1.407       .  A
C1429      H1434   1.083       .  S
C1430      C1431   1.416   1_556  A
C1431      C1432   1.397       .  A
C1431      N1435   1.428       .  S
C1432      H1436   1.084       .  S
N1433      O1443   1.262       .  A
N1433      O1444   1.262       .  A
N1435      O1441   1.261   1_554  A
N1435      O1442   1.262       .  A
C1445      C1446   1.402       .  A
C1445      C1450   1.401       .  A
C1445      H1455   1.084       .  S
C1446      C1451   1.484       .  S
C1446      C1447   1.409       .  A
C1447      C1448   1.403       .  A
C1447      N1452   1.431       .  S
C1448      C1449   1.407       .  A
C1448      H1453   1.084       .  S
C1449      C1450   1.417       .  A
C1450      N1454   1.432       .  S
C1451      C1456   1.408       .  A
C1451      C1460   1.401       .  A
N1452      O1467   1.262       .  A
N1452      O1468   1.262   1_565  A
N1454      O1465   1.262       .  A
N1454      O1466   1.262       .  A
C1456      C1457   1.402       .  A
C1456      N1461   1.430       .  S
C1457      C1458   1.408       .  A
C1457      H1462   1.082   1_565  S
C1458      C1459   1.415       .  A
C1459      C1460   1.400       .  A
C1459      N1463   1.427       .  S
C1460      H1464   1.084       .  S
N1461      O1471   1.262       .  A
N1461      O1472   1.262   1_565  A
N1463      O1469   1.262       .  A
N1463      O1470   1.262       .  A
C1473      C1474   1.400       .  A
C1473      C1478   1.401       .  A
C1473      H1483   1.084       .  S
C1474      C1479   1.481       .  S
C1474      C1475   1.407       .  A
C1475      C1476   1.404       .  A
C1475      N1480   1.428       .  S
C1476      C1477   1.405       .  A
C1476      H1481   1.084       .  S
C1477      C1478   1.416       .  A
C1478      N1482   1.430       .  S
C1479      C1484   1.407       .  A
C1479      C1488   1.400       .  A
N1480      O1495   1.262       .  A
N1480      O1496   1.261       .  A
N1482      O1493   1.262       .  A
N1482      O1494   1.262       .  A
C1484      C1485   1.400       .  A
C1484      N1489   1.428       .  S
C1485      C1486   1.405       .  A
C1485      H1490   1.084       .  S
C1486      C1487   1.417       .  A
C1487      C1488   1.407       .  A
C1487      N1491   1.433   1_655  S
C1488      H1492   1.084       .  S
N1489      O1499   1.262       .  A
N1489      O1500   1.262       .  A
N1491      O1497   1.262       .  A
N1491      O1498   1.263       .  A
C1501      C1502   1.403       .  A
C1501      C1506   1.406       .  A
C1501      H1511   1.084       .  S
C1502      C1507   1.478       .  S
C1502      C1503   1.404   1_556  A
C1503      C1504   1.396       .  A
C1503      N1508   1.429       .  S
C1504      C1505   1.408   1_554  A
C1504      H1509   1.083       .  S
C1505      C1506   1.415       .  A
C1506      N1510   1.428       .  S
C1507      C1512   1.404       .  A
C1507      C1516   1.402   1_556  A
N1508      O1523   1.262       .  A
N1508      O1524   1.262       .  A
N1510      O1521   1.262       .  A
N1510      O1522   1.262       .  A
C1512      C1513   1.398       .  A
C1512      N1517   1.429       .  S
C1513      C1514   1.408       .  A
C1513      H1518   1.084       .  S
C1514      C1515   1.414   1_556  A
C1515      C1516   1.404       .  A
C1515      N1519   1.428       .  S
C1516      H1520   1.084       .  S
N1517      O1527   1.262       .  A
N1517      O1528   1.262       .  A
N1519      O1525   1.262       .  A
N1519      O1526   1.262       .  A
C1529      C1530   1.401       .  A
C1529      C1534   1.402       .  A
C1529      H1539   1.084       .  S
C1530      C1535   1.482       .  S
C1530      C1531   1.409       .  A
C1531      C1532   1.402       .  A
C1531      N1536   1.430       .  S
C1532      C1533   1.406       .  A
C1532      H1537   1.084       .  S
C1533      C1534   1.411       .  A
C1534      N1538   1.427   1_655  S
C1535      C1540   1.410       .  A
C1535      C1544   1.398       .  A
N1536      O1551   1.262       .  A
N1536      O1552   1.262       .  A
N1538      O1549   1.262       .  A
N1538      O1550   1.262       .  A
C1540      C1541   1.406       .  A
C1540      N1545   1.430       .  S
C1541      C1542   1.407       .  A
C1541      H1546   1.084       .  S
C1542      C1543   1.416       .  A
C1543      C1544   1.398       .  A
C1543      N1547   1.427       .  S
C1544      H1548   1.084       .  S
N1545      O1555   1.262       .  A
N1545      O1556   1.262       .  A
N1547      O1553   1.262       .  A
N1547      O1554   1.261       .  A
C1557      C1558   1.401       .  A
C1557      C1562   1.399       .  A
C1557      H1567   1.084       .  S
C1558      C1563   1.482       .  S
C1558      C1559   1.409       .  A
C1559      C1560   1.404       .  A
C1559      N1564   1.430       .  S
C1560      C1561   1.408       .  A
C1560      H1565   1.083       .  S
C1561      C1562   1.415       .  A
C1562      N1566   1.429       .  S
C1563      C1568   1.408       .  A
C1563      C1572   1.401       .  A
N1564      O1579   1.262       .  A
N1564      O1580   1.262       .  A
N1566      O1577   1.262       .  A
N1566      O1578   1.262       .  A
C1568      C1569   1.403       .  A
C1568      N1573   1.429       .  S
C1569      C1570   1.406       .  A
C1569      H1574   1.082       .  S
C1570      C1571   1.415       .  A
C1571      C1572   1.398       .  A
C1571      N1575   1.429       .  S
C1572      H1576   1.084       .  S
N1573      O1583   1.262       .  A
N1573      O1584   1.262       .  A
N1575      O1581   1.261       .  A
N1575      O1582   1.262       .  A
C1585      C1586   1.399       .  A
C1585      C1590   1.400       .  A
C1585      H1595   1.084       .  S
C1586      C1591   1.467       .  S
C1586      C1587   1.403   1_554  A
C1587      C1588   1.393       .  A
C1587      N1592   1.429       .  S
C1588      C1589   1.405   1_556  A
C1588      H1593   1.084       .  S
C1589      C1590   1.414       .  A
C1590      N1594   1.429       .  S
C1591      C1596   1.402       .  A
C1591      C1600   1.400   1_554  A
N1592      O1607   1.262       .  A
N1592      O1608   1.262   1_556  A
N1594      O1605   1.262       .  A
N1594      O1606   1.261       .  A
C1596      C1597   1.394       .  A
C1596      N1601   1.429       .  S
C1597      C1598   1.406   1_554  A
C1597      H1602   1.084       .  S
C1598      C1599   1.413       .  A
C1599      C1600   1.400       .  A
C1599      N1603   1.429       .  S
C1600      H1604   1.084       .  S
N1601      O1611   1.262       .  A
N1601      O1612   1.262       .  A
N1603      O1609   1.262       .  A
N1603      O1610   1.262       .  A
C1613      C1614   1.399   1_554  A
C1613      C1618   1.399       .  A
C1613      H1623   1.084       .  S
C1614      C1619   1.477       .  S
C1614      C1615   1.406       .  A
C1615      C1616   1.402       .  A
C1615      N1620   1.429       .  S
C1616      C1617   1.407       .  A
C1616      H1621   1.083       .  S
C1617      C1618   1.418   1_556  A
C1618      N1622   1.429       .  S
C1619      C1624   1.407   1_556  A
C1619      C1628   1.399       .  A
N1620      O1635   1.262       .  A
N1620      O1636   1.262       .  A
N1622      O1633   1.262       .  A
N1622      O1634   1.262       .  A
C1624      C1625   1.402       .  A
C1624      N1629   1.428       .  S
C1625      C1626   1.406   1_554  A
C1625      H1630   1.084       .  S
C1626      C1627   1.416       .  A
C1627      C1628   1.399       .  A
C1627      N1631   1.429       .  S
C1628      H1632   1.084       .  S
N1629      O1639   1.262       .  A
N1629      O1640   1.262       .  A
N1631      O1637   1.261       .  A
N1631      O1638   1.262       .  A
