geometry optimzed in LAMMPS
_audit_creation_date              2020-11-30 
_audit_creation_method            'lammps2cif' 
_symmetry_space_group_name_H-M    'P1' 
_symmetry_Int_Tables_number       1 
_symmetry_cell_setting            triclinic 
loop_ 
_symmetry_equiv_pos_as_xyz 
  x,y,z 
_cell_length_a                    31.20820774 
_cell_length_b                    31.215062399876956 
_cell_length_c                    36.40897336841149 
_cell_angle_alpha                 90.02549640128439 
_cell_angle_beta                  89.98590797227185 
_cell_angle_gamma                 119.97597900331665 
loop_ 
_atom_site_label 
_atom_site_type_symbol 
_atom_site_fract_x 
_atom_site_fract_y 
_atom_site_fract_z 
_atom_site_charge 
O1          O  0.41710286  0.25824041  0.88244882    -0.74700
C2          C  0.39132166  0.10775846  0.89163298     0.86400
O3          O  0.40549095  0.20106474  0.75767732    -0.75800
O4          O  0.27460352  0.04614453  0.80772949    -0.77300
O5          O  0.23940552  0.15286986  0.88375911    -0.77100
O6          O  0.34661014  0.26014616  0.88359904    -0.75700
Zn7        Zn  0.40307158  0.19885660  0.85129567     1.55700
O8          O  0.23921292  0.08121426  0.88320212    -0.77100
Cd9        Cd  0.29989196  0.19963688  0.85198166     1.59700
Cd10       Cd  0.33404541  0.16522870  0.77814690     1.59600
O11         O  0.27483099  0.22463730  0.80902514    -0.77100
O12         O  0.33510565  0.16520777  0.83330368    -1.87600
Cd13       Cd  0.29971402  0.09527768  0.85125932     1.59900
O14         O  0.29815869  0.20132433  0.75834759    -0.77100
O15         O  0.34621860  0.08061913  0.88246479    -0.75700
C16         C  0.44716813  0.22159636  0.77394892     0.86800
C17         C  0.39172322  0.27782045  0.89262321     0.86500
O18         O  0.41683645  0.15284003  0.88185443    -0.74700
C19         C  0.22081034  0.10774285  0.89309488     0.87300
O20         O  0.45105834  0.22311662  0.80879436    -0.74800
C21         C  0.27717440  0.22233256  0.77423197     0.87400
C22         C  0.27692978  0.05140794  0.77298889     0.87700
O23         O  0.29798402  0.09365727  0.75753249    -0.77200
C24         C  0.16678959  0.33138515  0.68787654     0.01300
C25         C  0.00081710  0.99774705  0.97815812     0.01300
O26         O  0.48895030  0.40280994  0.45077440    -0.74700
C27         C  0.11368946  0.05314381  0.44063083     0.86400
O28         O  0.03514448  0.46097074  0.57516702    -0.75800
O29         O  0.05933749  0.11572699  0.52453180    -0.77300
O30         O  0.41704911  0.00858514  0.44886954    -0.77100
O31         O  0.41668335  0.40116369  0.44956682    -0.75700
Zn32       Zn  0.03456185  0.46250252  0.48153416     1.55700
O33         O  0.48848922  0.08022464  0.44924077    -0.77100
Cd34       Cd  0.43078284  0.46202507  0.48084887     1.59700
Cd35       Cd  0.49958212  0.49680014  0.55454964     1.59600
O36         O  0.38093266  0.43750529  0.52389160    -0.77100
O37         O  0.50045384  0.49644713  0.49939459    -1.87600
Cd38       Cd  0.03500338  0.06625840  0.48117384     1.59900
O39         O  0.42769385  0.46097886  0.57448924    -0.77100
O40         O  0.09588385  0.08045228  0.44976536    -0.75700
C41         C  0.05621369  0.44029192  0.55896452     0.86800
C42         C  0.44397395  0.38324986  0.44069177     0.86500
O43         O  0.09413217  0.00813899  0.45062201    -0.74700
C44         C  0.44355615  0.05365672  0.43940822     0.87300
O45         O  0.05848373  0.43855921  0.52412232    -0.74800
C46         C  0.38567890  0.43998778  0.55866995     0.87400
C47         C  0.05647910  0.11066806  0.55929361     0.87700
O48         O  0.03525166  0.06850829  0.57488263    -0.77200
C49         C  0.33342143  0.16356946  0.35458043     0.01300
C50         C  0.16621101  0.33048389  0.64482087     0.01300
O51         O  0.26097024  0.41375050  0.11670321    -0.74700
C52         C  0.11062480  0.38818191  0.10707248     0.86400
O53         O  0.20332491  0.40376569  0.24130017    -0.75800
O54         O  0.04856265  0.27220164  0.19135337    -0.77600
O55         O  0.15547050  0.23608163  0.11645922    -0.77100
O56         O  0.26284240  0.34324523  0.11623794    -0.75700
Zn57       Zn  0.20164269  0.40023919  0.14773030     1.55700
O58         O  0.08391059  0.23610573  0.11642105    -0.77100
Cd59       Cd  0.20220283  0.29697331  0.14795901     1.59700
Cd60       Cd  0.16753482  0.33210277  0.22125325     1.59600
O61         O  0.22695601  0.27244733  0.19138465    -0.77100
O62         O  0.16779399  0.33247389  0.16608986    -1.87600
Cd63       Cd  0.09792047  0.29689505  0.14797295     1.59900
O64         O  0.20348475  0.29639716  0.24167338    -0.77100
O65         O  0.08343285  0.34315284  0.11636453    -0.75700
C66         C  0.22412387  0.44526723  0.22480493     0.86800
C67         C  0.28053113  0.38822828  0.10685578     0.86500
O68         O  0.15569660  0.41374209  0.11689044    -0.74700
C69         C  0.11040140  0.21750017  0.10691719     0.87300
O70         O  0.22594359  0.44878168  0.18993387    -0.74800
C71         C  0.22450654  0.27519158  0.22613545     0.87400
C72         C  0.05366233  0.27499172  0.22610732     0.87700
O73         O  0.09585067  0.29631344  0.24167890    -0.77200
C74         C  0.00040243  0.99783585  0.02121859     0.01300
C75         C  0.33371369  0.16460436  0.31152755     0.01300
C76         C  0.44954120  0.47261230  0.03588465    -0.14700
C77         C  0.40897770  0.45279094  0.04968238     0.09400
C78         C  0.36286189  0.43023382  0.06786248     0.11200
C79         C  0.32464101  0.41114217  0.08492661    -0.15500
C80         C  0.08832996  0.17335745  0.08508254    -0.14700
C81         C  0.06914160  0.13515783  0.06803837     0.09400
C82         C  0.04598391  0.08910611  0.04984750     0.11200
C83         C  0.02567971  0.04860134  0.03600715    -0.15500
C84         C  0.08931093  0.41110796  0.08530034    -0.14700
C85         C  0.07008497  0.43020606  0.06837167     0.09400
C86         C  0.04647546  0.45276771  0.05027967     0.11200
C87         C  0.02580043  0.47259281  0.03638162    -0.15500
C88         C  0.24637308  0.25336852  0.24850423    -0.14700
C89         C  0.26537465  0.23421603  0.26563021     0.09400
C90         C  0.28830817  0.21092418  0.28362472     0.11200
C91         C  0.30846415  0.19036964  0.29716427    -0.15500
C92         C  0.24636641  0.48983378  0.24620970    -0.14700
C93         C  0.26544719  0.02810906  0.26319036     0.09400
C94         C  0.28833334  0.07400514  0.28164907     0.11200
C95         C  0.30843825  0.11423340  0.29596039    -0.15500
C96         C  0.38460954  0.19029420  0.29687352    -0.14700
C97         C  0.42531907  0.21076357  0.28331520     0.09400
C98         C  0.47164314  0.23398631  0.26543468     0.11200
C99         C  0.00989984  0.25312585  0.24842042    -0.15500
C100        C  0.15787983  0.07422957  0.41876824    -0.14700
C101        C  0.19607684  0.09334457  0.40165746     0.09400
C102        C  0.24211223  0.11696218  0.38333660     0.11200
C103        C  0.28259770  0.13779179  0.36939510    -0.15500
C104        C  0.35890695  0.21398792  0.37006914    -0.14700
C105        C  0.37976224  0.25438055  0.38410925     0.09400
C106        C  0.40357536  0.30051153  0.40222675     0.11200
C107        C  0.42285441  0.33888379  0.41908327    -0.15500
C108        C  0.42161041  0.07563817  0.41736116    -0.14700
C109        C  0.40241012  0.09463401  0.40032773     0.09400
C110        C  0.37915920  0.11758773  0.38237541     0.11200
C111        C  0.35876451  0.13790135  0.36887850    -0.15500
C112        C  0.34172712  0.41811085  0.58074358    -0.14700
C113        C  0.30347103  0.39898672  0.59773614     0.09400
C114        C  0.25730210  0.37586961  0.61579487     0.11200
C115        C  0.21679796  0.35562897  0.62965870    -0.15500
C116        C  0.14068875  0.27944899  0.63045245    -0.14700
C117        C  0.12030629  0.23876337  0.61685237     0.09400
C118        C  0.09719519  0.19257126  0.59877712     0.11200
C119        C  0.07818148  0.15442396  0.58162298    -0.15500
C120        C  0.14064385  0.35557728  0.62976144    -0.14700
C121        C  0.12033622  0.37573220  0.61581376     0.09400
C122        C  0.09732184  0.39880278  0.59761704     0.11200
C123        C  0.07826386  0.41802657  0.58064704    -0.15500
C124        C  0.47586365  0.44696918  0.96333157    -0.14700
C125        C  0.45631347  0.40641264  0.94954731     0.09400
C126        C  0.43399777  0.36024650  0.93146581     0.11200
C127        C  0.41492341  0.32196491  0.91448840    -0.15500
C128        C  0.05172245  0.02316526  0.96363279    -0.14700
C129        C  0.09237680  0.04344708  0.95004003     0.09400
C130        C  0.13857532  0.06650903  0.93206630     0.11200
C131        C  0.17680639  0.08563986  0.91506866    -0.15500
C132        C  0.47559960  0.02311093  0.96289705    -0.14700
C133        C  0.45585047  0.04371965  0.94875423     0.09400
C134        C  0.43338828  0.06723869  0.93036724     0.11200
C135        C  0.41432773  0.08641925  0.91331707    -0.15500
C136        C  0.25518363  0.24436075  0.75219947    -0.14700
C137        C  0.23604061  0.26342413  0.73512342     0.09400
C138        C  0.21286938  0.28633181  0.71689751     0.11200
C139        C  0.19244395  0.30637360  0.70294506    -0.15500
C140        C  0.11623920  0.30624760  0.70309502    -0.14700
C141        C  0.07584543  0.28611918  0.71713308     0.09400
C142        C  0.02981110  0.26310840  0.73537676     0.11200
C143        C  0.49153053  0.24390787  0.75233634    -0.15500
C144        C  0.25488522  0.00776166  0.75055426    -0.14700
C145        C  0.23571749  0.46956045  0.73347533     0.09400
C146        C  0.21257803  0.42323338  0.71560650     0.11200
C147        C  0.19225264  0.38244957  0.70217948    -0.15500
O148        O  0.41711552  0.75824341  0.88244933    -0.74700
C149        C  0.39134004  0.60776278  0.89163477     0.86400
O150        O  0.40550998  0.70106000  0.75767829    -0.75800
O151        O  0.27461883  0.54614453  0.80773094    -0.77300
O152        O  0.23941648  0.65286607  0.88375500    -0.77100
O153        O  0.34661952  0.76014292  0.88359902    -0.75700
Zn154      Zn  0.40308787  0.69885990  0.85129679     1.55700
O155        O  0.23923018  0.58121364  0.88320319    -0.77100
Cd156      Cd  0.29990520  0.69963463  0.85197998     1.59700
Cd157      Cd  0.33406387  0.66522800  0.77814709     1.59600
O158        O  0.27484793  0.72463633  0.80902216    -0.77100
O159        O  0.33512214  0.66520804  0.83330381    -1.87600
Cd160      Cd  0.29973165  0.59527841  0.85126018     1.59900
O161        O  0.29818127  0.70132686  0.75834572    -0.77100
O162        O  0.34623768  0.58062177  0.88246543    -0.75700
C163        C  0.44718679  0.72159488  0.77395049     0.86800
C164        C  0.39173279  0.77782017  0.89262363     0.86500
O165        O  0.41685348  0.65284483  0.88185704    -0.74700
C166        C  0.22082403  0.60774017  0.89309300     0.87300
O167        O  0.45107608  0.72311957  0.80879606    -0.74800
C168        C  0.27719528  0.72233406  0.77422913     0.87400
C169        C  0.27694243  0.55140725  0.77299032     0.87700
O170        O  0.29799756  0.59365625  0.75753343    -0.77200
C171        C  0.16680766  0.83138503  0.68787600     0.01300
C172        C  0.00083160  0.49774716  0.97815851     0.01300
O173        O  0.48896062  0.90280533  0.45077632    -0.74700
C174        C  0.11366840  0.55315089  0.44062809     0.86400
O175        O  0.03516463  0.96097488  0.57516848    -0.75800
O176        O  0.05931730  0.61572560  0.52453212    -0.77300
O177        O  0.41702403  0.50857579  0.44886991    -0.77100
O178        O  0.41669831  0.90116863  0.44956704    -0.75700
Zn179      Zn  0.03457618  0.96249810  0.48153524     1.55700
O180        O  0.48845915  0.58022027  0.44924485    -0.77100
Cd181      Cd  0.43080253  0.96203132  0.48084892     1.59700
Cd182      Cd  0.49960041  0.99680168  0.55455014     1.59600
O183        O  0.38095137  0.93751318  0.52389126    -0.77100
O184        O  0.50047304  0.99644827  0.49939499    -1.87600
Cd185      Cd  0.03497906  0.56625735  0.48117384     1.59900
O186        O  0.42771174  0.96097887  0.57448929    -0.77100
O187        O  0.09585790  0.58045549  0.44976148    -0.75700
C188        C  0.05623039  0.94029229  0.55896639     0.86800
C189        C  0.44398489  0.88324987  0.44069292     0.86500
O190        O  0.09411644  0.50814728  0.45062122    -0.74700
C191        C  0.44352707  0.55364889  0.43941102     0.87300
O192        O  0.05849678  0.93855511  0.52412422    -0.74800
C193        C  0.38569698  0.93999164  0.55866968     0.87400
C194        C  0.05646415  0.61066654  0.55929397     0.87700
O195        O  0.03523773  0.56850663  0.57488283    -0.77200
C196        C  0.33340266  0.66357023  0.35458026     0.01300
C197        C  0.16622799  0.83048351  0.64482033     0.01300
O198        O  0.26095290  0.91375087  0.11670016    -0.74700
C199        C  0.11060857  0.88818337  0.10707472     0.86400
O200        O  0.20331435  0.90376588  0.24129950    -0.75800
O201        O  0.04854760  0.77220044  0.19135384    -0.77600
O202        O  0.15545625  0.73608332  0.11645887    -0.77100
O203        O  0.26282658  0.84324648  0.11623524    -0.75700
Zn204      Zn  0.20162781  0.90024026  0.14772997     1.55700
O205        O  0.08389551  0.73610569  0.11641968    -0.77100
Cd206      Cd  0.20218840  0.79697523  0.14795764     1.59700
Cd207      Cd  0.16752024  0.83210316  0.22125243     1.59600
O208        O  0.22694385  0.77245060  0.19138241    -0.77100
O209        O  0.16777896  0.83247471  0.16608911    -1.87600
Cd210      Cd  0.09790514  0.79689474  0.14797268     1.59900
O211        O  0.20347021  0.79639714  0.24167156    -0.77100
O212        O  0.08341732  0.84315372  0.11636567    -0.75700
C213        C  0.22411628  0.94526755  0.22480447     0.86800
C214        C  0.28051412  0.88822910  0.10685241     0.86500
O215        O  0.15568030  0.91374401  0.11689280    -0.74700
C216        C  0.11038732  0.71750096  0.10691634     0.87300
O217        O  0.22593455  0.94878240  0.18993346    -0.74800
C218        C  0.22449367  0.77519350  0.22613323     0.87400
C219        C  0.05364773  0.77499117  0.22610781     0.87700
O220        O  0.09583635  0.79631424  0.24167899    -0.77200
C221        C  0.00041780  0.49783544  0.02121903     0.01300
C222        C  0.33369829  0.66460487  0.31152731     0.01300
C223        C  0.44952565  0.97261469  0.03588357    -0.14700
C224        C  0.40896148  0.95279330  0.04968017     0.09400
C225        C  0.36284470  0.93023540  0.06785893     0.11200
C226        C  0.32462345  0.91114325  0.08492260    -0.15500
C227        C  0.08831814  0.67335805  0.08508188    -0.14700
C228        C  0.06913655  0.63515805  0.06803811     0.09400
C229        C  0.04598922  0.58910591  0.04984773     0.11200
C230        C  0.02569220  0.54860090  0.03600771    -0.15500
C231        C  0.08929401  0.91110926  0.08530320    -0.14700
C232        C  0.07006741  0.93020646  0.06837428     0.09400
C233        C  0.04645758  0.95276688  0.05028113     0.11200
C234        C  0.02578297  0.97259164  0.03638195    -0.15500
C235        C  0.24636122  0.75337106  0.24850150    -0.14700
C236        C  0.26536324  0.73421880  0.26562719     0.09400
C237        C  0.28829623  0.71092664  0.28362190     0.11200
C238        C  0.30845088  0.69037119  0.29716210    -0.15500
C239        C  0.24636501  0.98983381  0.24620947    -0.14700
C240        C  0.26544236  0.52810926  0.26319038     0.09400
C241        C  0.28832171  0.57400539  0.28164909     0.11200
C242        C  0.30842319  0.61423374  0.29596032    -0.15500
C243        C  0.38459524  0.69029358  0.29687496    -0.14700
C244        C  0.42530507  0.71076228  0.28331694     0.09400
C245        C  0.47162910  0.73398465  0.26543606     0.11200
C246        C  0.00988552  0.75312443  0.24842142    -0.15500
C247        C  0.15785847  0.57423967  0.41876486    -0.14700
C248        C  0.19605550  0.59335522  0.40165397     0.09400
C249        C  0.24209145  0.61697114  0.38333360     0.11200
C250        C  0.28257773  0.63779768  0.36939312    -0.15500
C251        C  0.35889294  0.71398873  0.37006905    -0.14700
C252        C  0.37975436  0.75438100  0.38410961     0.09400
C253        C  0.40357564  0.80051148  0.40222769     0.11200
C254        C  0.42286089  0.83888361  0.41908440    -0.15500
C255        C  0.42157820  0.57562808  0.41736496    -0.14700
C256        C  0.40237802  0.59462400  0.40033154     0.09400
C257        C  0.37912983  0.61757980  0.38237839     0.11200
C258        C  0.35873935  0.63789684  0.36888025    -0.15500
C259        C  0.34174468  0.91811397  0.58074295    -0.14700
C260        C  0.30348811  0.89898867  0.59773504     0.09400
C261        C  0.25731882  0.87586983  0.61579347     0.11200
C262        C  0.21681465  0.85562803  0.62965735    -0.15500
C263        C  0.14070351  0.77944849  0.63045203    -0.14700
C264        C  0.12031515  0.73876268  0.61685217     0.09400
C265        C  0.09719465  0.69257015  0.59877735     0.11200
C266        C  0.07817323  0.65442251  0.58162348    -0.15500
C267        C  0.14066127  0.85557771  0.62976178    -0.14700
C268        C  0.12035354  0.87573307  0.61581506     0.09400
C269        C  0.09733897  0.89880395  0.59761917     0.11200
C270        C  0.07828081  0.91802762  0.58064932    -0.15500
C271        C  0.47585251  0.94696892  0.96333151    -0.14700
C272        C  0.45630720  0.90641226  0.94954763     0.09400
C273        C  0.43399834  0.86024593  0.93146662     0.11200
C274        C  0.41492916  0.82196434  0.91448923    -0.15500
C275        C  0.05173655  0.52316345  0.96363227    -0.14700
C276        C  0.09239029  0.54344413  0.95003837     0.09400
C277        C  0.13858824  0.56650534  0.93206371     0.11200
C278        C  0.17681942  0.58563619  0.91506612    -0.15500
C279        C  0.47561573  0.52311341  0.96289852    -0.14700
C280        C  0.45586805  0.54372386  0.94875631     0.09400
C281        C  0.43340709  0.56724416  0.93036954     0.11200
C282        C  0.41434683  0.58642481  0.91331925    -0.15500
C283        C  0.25520683  0.74436375  0.75219579    -0.14700
C284        C  0.23606439  0.76342794  0.73512004     0.09400
C285        C  0.21289230  0.78633556  0.71689526     0.11200
C286        C  0.19246517  0.80637625  0.70294380    -0.15500
C287        C  0.11625759  0.80624479  0.70309530    -0.14700
C288        C  0.07586427  0.78611545  0.71713420     0.09400
C289        C  0.02983039  0.76310476  0.73537868     0.11200
C290        C  0.49154975  0.74390503  0.75233843    -0.15500
C291        C  0.25489206  0.50776063  0.75055615    -0.14700
C292        C  0.23571753  0.96956124  0.73347366     0.09400
C293        C  0.21258686  0.92323372  0.71560536     0.11200
C294        C  0.19226760  0.88244965  0.70217874    -0.15500
O295        O  0.91710286  0.25824042  0.88244883    -0.74700
C296        C  0.89132163  0.10775847  0.89163299     0.86400
O297        O  0.90549092  0.20106467  0.75767730    -0.75800
O298        O  0.77460335  0.04614453  0.80772955    -0.77300
O299        O  0.73940539  0.15286982  0.88375910    -0.77100
O300        O  0.84661011  0.26014613  0.88359903    -0.75700
Zn301      Zn  0.90307169  0.19885660  0.85129567     1.55700
O302        O  0.73921297  0.08121431  0.88320218    -0.77100
Cd303      Cd  0.79989186  0.19963687  0.85198166     1.59700
Cd304      Cd  0.83404533  0.16522870  0.77814689     1.59600
O305        O  0.77483113  0.22463736  0.80902512    -0.77100
O306        O  0.83510560  0.16520779  0.83330369    -1.87600
Cd307      Cd  0.79971394  0.09527769  0.85125933     1.59900
O308        O  0.79815862  0.20132430  0.75834753    -0.77100
O309        O  0.84621860  0.08061909  0.88246474    -0.75700
C310        C  0.94716811  0.22159637  0.77394892     0.86800
C311        C  0.89172319  0.27782044  0.89262321     0.86500
O312        O  0.91683641  0.15284003  0.88185446    -0.74700
C313        C  0.72081034  0.10774284  0.89309494     0.87300
O314        O  0.95105832  0.22311667  0.80879436    -0.74800
C315        C  0.77717443  0.22233260  0.77423196     0.87400
C316        C  0.77692972  0.05140792  0.77298896     0.87700
O317        O  0.79798413  0.09365725  0.75753254    -0.77200
C318        C  0.66678962  0.33138516  0.68787654     0.01300
C319        C  0.50081712  0.99774704  0.97815813     0.01300
O320        O  0.98895017  0.40280993  0.45077439    -0.74700
C321        C  0.61368942  0.05314381  0.44063082     0.86400
O322        O  0.53514441  0.46097072  0.57516702    -0.75800
O323        O  0.55933737  0.11572700  0.52453179    -0.77300
O324        O  0.91704903  0.00858516  0.44886953    -0.77100
O325        O  0.91668325  0.40116369  0.44956682    -0.75700
Zn326      Zn  0.53456199  0.46250252  0.48153416     1.55700
O327        O  0.98848914  0.08022466  0.44924077    -0.77100
Cd328      Cd  0.93078297  0.46202506  0.48084888     1.59700
Cd329      Cd  0.99958225  0.49680014  0.55454965     1.59600
O330        O  0.88093260  0.43750531  0.52389158    -0.77100
O331        O  0.00045382  0.49644717  0.49939461    -1.87600
Cd332      Cd  0.53500352  0.06625840  0.48117384     1.59900
O333        O  0.92769380  0.46097887  0.57448923    -0.77100
O334        O  0.59588385  0.08045231  0.44976533    -0.75700
C335        C  0.55621366  0.44029193  0.55896454     0.86800
C336        C  0.94397383  0.38324985  0.44069176     0.86500
O337        O  0.59413205  0.00813899  0.45062202    -0.74700
C338        C  0.94355609  0.05365673  0.43940819     0.87300
O339        O  0.55848373  0.43855920  0.52412234    -0.74800
C340        C  0.88567884  0.43998782  0.55866993     0.87400
C341        C  0.55647905  0.11066806  0.55929361     0.87700
O342        O  0.53525182  0.06850829  0.57488263    -0.77200
C343        C  0.83342137  0.16356947  0.35458042     0.01300
C344        C  0.66621103  0.33048387  0.64482088     0.01300
O345        O  0.76097017  0.41375044  0.11670317    -0.74700
C346        C  0.61062490  0.38818190  0.10707247     0.86400
O347        O  0.70332501  0.40376569  0.24130017    -0.75800
O348        O  0.54856260  0.27220166  0.19135336    -0.77600
O349        O  0.65547040  0.23608163  0.11645922    -0.77100
O350        O  0.76284254  0.34324527  0.11623795    -0.75700
Zn351      Zn  0.70164261  0.40023918  0.14773030     1.55700
O352        O  0.58391050  0.23610573  0.11642105    -0.77100
Cd353      Cd  0.70220298  0.29697332  0.14795901     1.59700
Cd354      Cd  0.66753471  0.33210277  0.22125325     1.59600
O355        O  0.72695593  0.27244731  0.19138467    -0.77100
O356        O  0.66779402  0.33247390  0.16608986    -1.87600
Cd357      Cd  0.59792060  0.29689505  0.14797295     1.59900
O358        O  0.70348462  0.29639714  0.24167338    -0.77100
O359        O  0.58343289  0.34315287  0.11636456    -0.75700
C360        C  0.72412396  0.44526723  0.22480493     0.86800
C361        C  0.78053117  0.38822829  0.10685576     0.86500
O362        O  0.65569669  0.41374205  0.11689042    -0.74700
C363        C  0.61040129  0.21750017  0.10691719     0.87300
O364        O  0.72594368  0.44878168  0.18993387    -0.74800
C365        C  0.72450643  0.27519156  0.22613547     0.87400
C366        C  0.55366229  0.27499173  0.22610731     0.87700
O367        O  0.59585060  0.29631347  0.24167889    -0.77200
C368        C  0.50040245  0.99783584  0.02121860     0.01300
C369        C  0.83371364  0.16460436  0.31152755     0.01300
C370        C  0.94954132  0.47261231  0.03588464    -0.14700
C371        C  0.90897785  0.45279092  0.04968240     0.09400
C372        C  0.86286203  0.43023380  0.06786251     0.11200
C373        C  0.82464112  0.41114222  0.08492662    -0.15500
C374        C  0.58832983  0.17335745  0.08508254    -0.14700
C375        C  0.56914154  0.13515783  0.06803837     0.09400
C376        C  0.54598399  0.08910611  0.04984750     0.11200
C377        C  0.52567970  0.04860134  0.03600715    -0.15500
C378        C  0.58931111  0.41110802  0.08530030    -0.14700
C379        C  0.57008510  0.43020609  0.06837166     0.09400
C380        C  0.54647547  0.45276769  0.05027969     0.11200
C381        C  0.52580043  0.47259281  0.03638162    -0.15500
C382        C  0.74637301  0.25336853  0.24850423    -0.14700
C383        C  0.76537467  0.23421608  0.26563017     0.09400
C384        C  0.78830811  0.21092418  0.28362472     0.11200
C385        C  0.80846405  0.19036959  0.29716428    -0.15500
C386        C  0.74636649  0.48983378  0.24620970    -0.14700
C387        C  0.76544705  0.02810906  0.26319036     0.09400
C388        C  0.78833329  0.07400515  0.28164907     0.11200
C389        C  0.80843831  0.11423341  0.29596038    -0.15500
C390        C  0.88460951  0.19029424  0.29687353    -0.14700
C391        C  0.92531906  0.21076354  0.28331524     0.09400
C392        C  0.97164311  0.23398633  0.26543466     0.11200
C393        C  0.50989985  0.25312580  0.24842044    -0.15500
C394        C  0.65787982  0.07422954  0.41876827    -0.14700
C395        C  0.69607680  0.09334459  0.40165746     0.09400
C396        C  0.74211219  0.11696219  0.38333659     0.11200
C397        C  0.78259766  0.13779175  0.36939511    -0.15500
C398        C  0.85890684  0.21398792  0.37006914    -0.14700
C399        C  0.87976211  0.25438056  0.38410925     0.09400
C400        C  0.90357523  0.30051153  0.40222675     0.11200
C401        C  0.92285428  0.33888378  0.41908327    -0.15500
C402        C  0.92161038  0.07563825  0.41736116    -0.14700
C403        C  0.90241016  0.09463420  0.40032777     0.09400
C404        C  0.87915913  0.11758779  0.38237543     0.11200
C405        C  0.85876443  0.13790137  0.36887850    -0.15500
C406        C  0.84172704  0.41811088  0.58074355    -0.14700
C407        C  0.80347097  0.39898676  0.59773612     0.09400
C408        C  0.75730207  0.37586963  0.61579486     0.11200
C409        C  0.71679797  0.35562891  0.62965872    -0.15500
C410        C  0.64068870  0.27944898  0.63045246    -0.14700
C411        C  0.62030617  0.23876337  0.61685237     0.09400
C412        C  0.59719505  0.19257126  0.59877712     0.11200
C413        C  0.57818135  0.15442396  0.58162298    -0.15500
C414        C  0.64064392  0.35557729  0.62976146    -0.14700
C415        C  0.62033634  0.37573224  0.61581373     0.09400
C416        C  0.59732194  0.39880281  0.59761700     0.11200
C417        C  0.57826386  0.41802656  0.58064706    -0.15500
C418        C  0.97586377  0.44696918  0.96333157    -0.14700
C419        C  0.95631341  0.40641264  0.94954731     0.09400
C420        C  0.93399763  0.36024650  0.93146581     0.11200
C421        C  0.91492332  0.32196491  0.91448840    -0.15500
C422        C  0.55172242  0.02316528  0.96363280    -0.14700
C423        C  0.59237674  0.04344712  0.95004000     0.09400
C424        C  0.63857531  0.06650905  0.93206635     0.11200
C425        C  0.67680648  0.08563984  0.91506882    -0.15500
C426        C  0.97559959  0.02311096  0.96289705    -0.14700
C427        C  0.95585051  0.04371969  0.94875420     0.09400
C428        C  0.93338823  0.06723869  0.93036725     0.11200
C429        C  0.91432768  0.08641926  0.91331710    -0.15500
C430        C  0.75518358  0.24436075  0.75219950    -0.14700
C431        C  0.73604051  0.26342410  0.73512345     0.09400
C432        C  0.71286928  0.28633176  0.71689754     0.11200
C433        C  0.69244389  0.30637356  0.70294507    -0.15500
C434        C  0.61623924  0.30624764  0.70309501    -0.14700
C435        C  0.57584547  0.28611918  0.71713309     0.09400
C436        C  0.52981111  0.26310841  0.73537674     0.11200
C437        C  0.99153051  0.24390789  0.75233636    -0.15500
C438        C  0.75488510  0.00776164  0.75055431    -0.14700
C439        C  0.73571742  0.46956046  0.73347533     0.09400
C440        C  0.71257797  0.42323338  0.71560650     0.11200
C441        C  0.69225274  0.38244958  0.70217948    -0.15500
O442        O  0.91711562  0.75824343  0.88244934    -0.74700
C443        C  0.89134000  0.60776276  0.89163479     0.86400
O444        O  0.90551001  0.70105995  0.75767826    -0.75800
O445        O  0.77461867  0.54614452  0.80773094    -0.77300
O446        O  0.73941648  0.65286605  0.88375497    -0.77100
O447        O  0.84661958  0.76014290  0.88359901    -0.75700
Zn448      Zn  0.90308802  0.69885990  0.85129679     1.55700
O449        O  0.73923025  0.58121368  0.88320325    -0.77100
Cd450      Cd  0.79990535  0.69963463  0.85197998     1.59700
Cd451      Cd  0.83406380  0.66522800  0.77814709     1.59600
O452        O  0.77484792  0.72463629  0.80902216    -0.77100
O453        O  0.83512228  0.66520804  0.83330382    -1.87600
Cd454      Cd  0.79973156  0.59527842  0.85126017     1.59900
O455        O  0.79818138  0.70132695  0.75834572    -0.77100
O456        O  0.84623761  0.58062175  0.88246546    -0.75700
C457        C  0.94718682  0.72159489  0.77395048     0.86800
C458        C  0.89173284  0.77782017  0.89262363     0.86500
O459        O  0.91685342  0.65284480  0.88185706    -0.74700
C460        C  0.72082406  0.60774017  0.89309302     0.87300
O461        O  0.95107607  0.72311961  0.80879606    -0.74800
C462        C  0.77719532  0.72233409  0.77422912     0.87400
C463        C  0.77694245  0.55140725  0.77299032     0.87700
O464        O  0.79799769  0.59365625  0.75753343    -0.77200
C465        C  0.66680756  0.83138502  0.68787601     0.01300
C466        C  0.50083146  0.49774716  0.97815851     0.01300
O467        O  0.98896052  0.90280534  0.45077632    -0.74700
C468        C  0.61366839  0.55315091  0.44062808     0.86400
O469        O  0.53516459  0.96097482  0.57516851    -0.75800
O470        O  0.55931739  0.61572560  0.52453212    -0.77300
O471        O  0.91702416  0.50857579  0.44886990    -0.77100
O472        O  0.91669819  0.90116863  0.44956704    -0.75700
Zn473      Zn  0.53457608  0.96249810  0.48153524     1.55700
O474        O  0.98845926  0.58022028  0.44924483    -0.77100
Cd475      Cd  0.93080245  0.96203133  0.48084892     1.59700
Cd476      Cd  0.99960030  0.99680167  0.55455014     1.59600
O477        O  0.88095140  0.93751313  0.52389126    -0.77100
O478        O  0.00047305  0.99644825  0.49939498    -1.87600
Cd479      Cd  0.53497896  0.56625735  0.48117384     1.59900
O480        O  0.92771167  0.96097891  0.57448932    -0.77100
O481        O  0.59585784  0.58045549  0.44976146    -0.75700
C482        C  0.55623035  0.94029226  0.55896640     0.86800
C483        C  0.94398478  0.88324988  0.44069292     0.86500
O484        O  0.59411646  0.50814730  0.45062121    -0.74700
C485        C  0.94352718  0.55364891  0.43941102     0.87300
O486        O  0.55849668  0.93855511  0.52412423    -0.74800
C487        C  0.88569695  0.93999165  0.55866968     0.87400
C488        C  0.55646418  0.61066654  0.55929397     0.87700
O489        O  0.53523781  0.56850663  0.57488283    -0.77200
C490        C  0.83340269  0.66357026  0.35458024     0.01300
C491        C  0.66622796  0.83048349  0.64482034     0.01300
O492        O  0.76095293  0.91375091  0.11670022    -0.74700
C493        C  0.61060858  0.88818336  0.10707471     0.86400
O494        O  0.70331452  0.90376588  0.24129950    -0.75800
O495        O  0.54854772  0.77220042  0.19135386    -0.77600
O496        O  0.65545616  0.73608332  0.11645888    -0.77100
O497        O  0.76282653  0.84324648  0.11623520    -0.75700
Zn498      Zn  0.70162772  0.90024026  0.14772998     1.55700
O499        O  0.58389539  0.73610570  0.11641968    -0.77100
Cd500      Cd  0.70218852  0.79697523  0.14795764     1.59700
Cd501      Cd  0.66752041  0.83210317  0.22125243     1.59600
O502        O  0.72694378  0.77245059  0.19138242    -0.77100
O503        O  0.66777893  0.83247468  0.16608909    -1.87600
Cd504      Cd  0.59790504  0.79689474  0.14797267     1.59900
O505        O  0.70347014  0.79639712  0.24167157    -0.77100
O506        O  0.58341727  0.84315373  0.11636567    -0.75700
C507        C  0.72411623  0.94526755  0.22480447     0.86800
C508        C  0.78051408  0.88822909  0.10685240     0.86500
O509        O  0.65568029  0.91374400  0.11689282    -0.74700
C510        C  0.61038721  0.71750096  0.10691634     0.87300
O511        O  0.72593439  0.94878240  0.18993346    -0.74800
C512        C  0.72449357  0.77519347  0.22613324     0.87400
C513        C  0.55364786  0.77499117  0.22610782     0.87700
O514        O  0.59583649  0.79631422  0.24167900    -0.77200
C515        C  0.50041771  0.49783542  0.02121904     0.01300
C516        C  0.83369830  0.66460489  0.31152729     0.01300
C517        C  0.94952561  0.97261471  0.03588358    -0.14700
C518        C  0.90896140  0.95279333  0.04968015     0.09400
C519        C  0.86284461  0.93023541  0.06785891     0.11200
C520        C  0.82462337  0.91114322  0.08492258    -0.15500
C521        C  0.58831801  0.67335805  0.08508188    -0.14700
C522        C  0.56913649  0.63515805  0.06803811     0.09400
C523        C  0.54598929  0.58910590  0.04984773     0.11200
C524        C  0.52569215  0.54860089  0.03600771    -0.15500
C525        C  0.58929412  0.91110928  0.08530315    -0.14700
C526        C  0.57006756  0.93020651  0.06837424     0.09400
C527        C  0.54645769  0.95276691  0.05028111     0.11200
C528        C  0.52578300  0.97259163  0.03638198    -0.15500
C529        C  0.74636110  0.75337104  0.24850152    -0.14700
C530        C  0.76536314  0.73421877  0.26562716     0.09400
C531        C  0.78829622  0.71092660  0.28362176     0.11200
C532        C  0.80845092  0.69037123  0.29716202    -0.15500
C533        C  0.74636488  0.98983381  0.24620947    -0.14700
C534        C  0.76544236  0.52810926  0.26319038     0.09400
C535        C  0.78832178  0.57400539  0.28164909     0.11200
C536        C  0.80842318  0.61423375  0.29596032    -0.15500
C537        C  0.88459521  0.69029357  0.29687495    -0.14700
C538        C  0.92530501  0.71076230  0.28331692     0.09400
C539        C  0.97162902  0.73398465  0.26543606     0.11200
C540        C  0.50988560  0.75312448  0.24842141    -0.15500
C541        C  0.65785848  0.57423969  0.41876486    -0.14700
C542        C  0.69605556  0.59335517  0.40165401     0.09400
C543        C  0.74209151  0.61697110  0.38333363     0.11200
C544        C  0.78257778  0.63779773  0.36939311    -0.15500
C545        C  0.85889302  0.71398874  0.37006904    -0.14700
C546        C  0.87975430  0.75438101  0.38410961     0.09400
C547        C  0.90357551  0.80051148  0.40222769     0.11200
C548        C  0.92286076  0.83888361  0.41908440    -0.15500
C549        C  0.92157827  0.57562809  0.41736496    -0.14700
C550        C  0.90237798  0.59462395  0.40033157     0.09400
C551        C  0.87912979  0.61757976  0.38237842     0.11200
C552        C  0.85873937  0.63789684  0.36888023    -0.15500
C553        C  0.84174462  0.91811395  0.58074293    -0.14700
C554        C  0.80348809  0.89898862  0.59773507     0.09400
C555        C  0.75731877  0.87586984  0.61579347     0.11200
C556        C  0.71681461  0.85562809  0.62965736    -0.15500
C557        C  0.64070361  0.77944848  0.63045203    -0.14700
C558        C  0.62031536  0.73876268  0.61685216     0.09400
C559        C  0.59719478  0.69257014  0.59877735     0.11200
C560        C  0.57817318  0.65442251  0.58162348    -0.15500
C561        C  0.64066121  0.85557763  0.62976179    -0.14700
C562        C  0.62035363  0.87573310  0.61581503     0.09400
C563        C  0.59733911  0.89880402  0.59761911     0.11200
C564        C  0.57828090  0.91802767  0.58064929    -0.15500
C565        C  0.97585241  0.94696892  0.96333151    -0.14700
C566        C  0.95630707  0.90641226  0.94954763     0.09400
C567        C  0.93399821  0.86024592  0.93146661     0.11200
C568        C  0.91492913  0.82196434  0.91448922    -0.15500
C569        C  0.55173642  0.52316346  0.96363225    -0.14700
C570        C  0.59239017  0.54344414  0.95003836     0.09400
C571        C  0.63858816  0.56650535  0.93206369     0.11200
C572        C  0.67681937  0.58563615  0.91506611    -0.15500
C573        C  0.97561590  0.52311342  0.96289851    -0.14700
C574        C  0.95586823  0.54372389  0.94875629     0.09400
C575        C  0.93340725  0.56724420  0.93036951     0.11200
C576        C  0.91434690  0.58642479  0.91331922    -0.15500
C577        C  0.75520679  0.74436373  0.75219577    -0.14700
C578        C  0.73606429  0.76342791  0.73512005     0.09400
C579        C  0.71289219  0.78633555  0.71689527     0.11200
C580        C  0.69246506  0.80637625  0.70294382    -0.15500
C581        C  0.61625748  0.80624479  0.70309529    -0.14700
C582        C  0.57586415  0.78611545  0.71713420     0.09400
C583        C  0.52983028  0.76310478  0.73537867     0.11200
C584        C  0.99154985  0.74390503  0.75233846    -0.15500
C585        C  0.75489214  0.50776063  0.75055615    -0.14700
C586        C  0.73571741  0.96956126  0.73347367     0.09400
C587        C  0.71258674  0.92323373  0.71560537     0.11200
C588        C  0.69226748  0.88244965  0.70217874    -0.15500
loop_ 
_geom_bond_atom_site_label_1 
_geom_bond_atom_site_label_2 
_geom_bond_distance 
_geom_bond_site_symmetry_2 
_ccdc_geom_bond_type 
O1           C17   1.273       .  A
O1           Zn7   2.025       .  S
C2           O18   1.273       .  A
C2           O15   1.272       .  A
C2          C135   1.436       .  S
O3           C16   1.273       .  A
O3          Cd10   2.070       .  S
O4           C22   1.273       .  A
O4          Cd13   2.068       .  S
O5           C19   1.273       .  A
O5           Cd9   2.069       .  S
O6           C17   1.272       .  A
O6           Cd9   2.065       .  S
Zn7          O18   2.026       .  S
Zn7          O20   2.019       .  S
Zn7          O12   1.951       .  S
O8           C19   1.273       .  A
O8          Cd13   2.069       .  S
Cd9          O11   2.068       .  S
Cd9          O12   2.001       .  S
Cd10         O14   2.075       .  S
Cd10         O23   2.075       .  S
Cd10         O12   2.008       .  S
O11          C21   1.273       .  A
O12         Cd13   2.001       .  S
Cd13         O15   2.067       .  S
O14          C21   1.274       .  A
C16          O20   1.273       .  A
C16         C143   1.434       .  S
C17         C127   1.435       .  S
C19         C131   1.434       .  S
C21         C136   1.435       .  S
C22          O23   1.274       .  A
C22         C144   1.435       .  S
C24          C50   1.568       .  S
C24         C139   1.475       .  S
C24         C140   1.475       .  S
C24         C147   1.476       .  S
C25          C74   1.568   1_556  S
C25         C128   1.474   1_565  S
C25         C565   1.475   1_455  S
C25         C426   1.476   1_465  S
O26          C42   1.273       .  A
O26        Zn326   2.025       .  S
C27          O43   1.274       .  A
C27          O40   1.272       .  A
C27         C100   1.436       .  S
O28          C41   1.273       .  A
O28        Cd329   2.071   1_455  S
O29          C47   1.273       .  A
O29         Cd38   2.069       .  S
O30          C44   1.273       .  A
O30        Cd181   2.068   1_545  S
O31          C42   1.272       .  A
O31         Cd34   2.065       .  S
Zn32         O45   2.020       .  S
Zn32        O320   2.025   1_455  S
Zn32        O190   2.026       .  S
Zn32        O331   1.951       .  S
O33          C44   1.273       .  A
O33        Cd332   2.069       .  S
Cd34         O36   2.067       .  S
Cd34        O177   2.068       .  S
Cd34         O37   2.001       .  S
Cd35         O39   2.075       .  S
Cd35        O322   2.071       .  S
Cd35        O489   2.075       .  S
Cd35         O37   2.008       .  S
O36          C46   1.273       .  A
O37        Zn326   1.951       .  S
O37        Cd479   2.001       .  S
Cd38         O40   2.067       .  S
Cd38        O327   2.069   1_455  S
Cd38        O478   2.001   1_545  S
O39          C46   1.274       .  A
C41          O45   1.273       .  A
C41         C123   1.435       .  S
C42         C107   1.435       .  S
O43        Zn179   2.026   1_545  S
C44         C108   1.433       .  S
C46         C112   1.434       .  S
C47          O48   1.274       .  A
C47         C119   1.435       .  S
O48        Cd476   2.075   1_445  S
C49          C75   1.568       .  S
C49         C103   1.476       .  S
C49         C104   1.475       .  S
C49         C111   1.474       .  S
C50         C115   1.475       .  S
C50         C116   1.476       .  S
C50         C120   1.475       .  S
O51          C67   1.273       .  A
O51         Zn57   2.025       .  S
C52          O68   1.273       .  A
C52          O65   1.272       .  A
C52          C84   1.435       .  S
O53          C66   1.273       .  A
O53         Cd60   2.070       .  S
O54          C72   1.273       .  A
O54         Cd63   2.068       .  S
O55          C69   1.273       .  A
O55         Cd59   2.070       .  S
O56          C67   1.272       .  A
O56         Cd59   2.067       .  S
Zn57         O68   2.025       .  S
Zn57         O70   2.021       .  S
Zn57         O62   1.951       .  S
O58          C69   1.273       .  A
O58         Cd63   2.069       .  S
Cd59         O61   2.068       .  S
Cd59         O62   2.001       .  S
Cd60         O64   2.075       .  S
Cd60         O73   2.076       .  S
Cd60         O62   2.008       .  S
O61          C71   1.273       .  A
O62         Cd63   2.001       .  S
Cd63         O65   2.066       .  S
O64          C71   1.274       .  A
C66          O70   1.273       .  A
C66          C92   1.435       .  S
C67          C79   1.435       .  S
C69          C80   1.434       .  S
C71          C88   1.435       .  S
C72          O73   1.274       .  A
C72          C99   1.435       .  S
C74          C83   1.474   1_565  S
C74         C517   1.475   1_455  S
C74         C234   1.476       .  S
C75          C91   1.475       .  S
C75          C95   1.475       .  S
C75          C96   1.476       .  S
C76         C515   1.475       .  S
C76          C77   1.206       .  T
C77          C78   1.412       .  S
C78          C79   1.206       .  T
C80          C81   1.205       .  T
C81          C82   1.410       .  S
C82          C83   1.205       .  T
C84          C85   1.206       .  T
C85          C86   1.411       .  S
C86          C87   1.206       .  T
C87         C221   1.476       .  S
C88          C89   1.205       .  T
C89          C90   1.411       .  S
C90          C91   1.206       .  T
C92         C240   1.205       .  T
C93         C239   1.205   1_545  T
C93          C94   1.411       .  S
C94          C95   1.206       .  T
C96          C97   1.206       .  T
C97          C98   1.411       .  S
C98         C393   1.206       .  T
C99         C392   1.206   1_455  T
C100        C101   1.206       .  T
C101        C102   1.412       .  S
C102        C103   1.207       .  T
C104        C105   1.206       .  T
C105        C106   1.411       .  S
C106        C107   1.205       .  T
C108        C109   1.204       .  T
C109        C110   1.410       .  S
C110        C111   1.205       .  T
C112        C113   1.205       .  T
C113        C114   1.411       .  S
C114        C115   1.206       .  T
C116        C117   1.206       .  T
C117        C118   1.412       .  S
C118        C119   1.206       .  T
C120        C121   1.206       .  T
C121        C122   1.411       .  S
C122        C123   1.205       .  T
C124        C466   1.475       .  S
C124        C125   1.206       .  T
C125        C126   1.411       .  S
C126        C127   1.205       .  T
C128        C129   1.205       .  T
C129        C130   1.410       .  S
C130        C131   1.205       .  T
C132        C319   1.476   1_545  S
C132        C133   1.206       .  T
C133        C134   1.412       .  S
C134        C135   1.206       .  T
C136        C137   1.206       .  T
C137        C138   1.411       .  S
C138        C139   1.206       .  T
C140        C141   1.206       .  T
C141        C142   1.411       .  S
C142        C437   1.205   1_455  T
C143        C436   1.205       .  T
C144        C292   1.205   1_545  T
C145        C291   1.205       .  T
C145        C146   1.411       .  S
C146        C147   1.206       .  T
O148        C164   1.273       .  A
O148       Zn154   2.025       .  S
C149        O165   1.273       .  A
C149        O162   1.272       .  A
C149        C282   1.436       .  S
O150        C163   1.273       .  A
O150       Cd157   2.070       .  S
O151        C169   1.273       .  A
O151       Cd160   2.068       .  S
O152        C166   1.273       .  A
O152       Cd156   2.069       .  S
O153        C164   1.272       .  A
O153       Cd156   2.065       .  S
Zn154       O165   2.026       .  S
Zn154       O167   2.019       .  S
Zn154       O159   1.951       .  S
O155        C166   1.273       .  A
O155       Cd160   2.069       .  S
Cd156       O158   2.068       .  S
Cd156       O159   2.001       .  S
Cd157       O161   2.075       .  S
Cd157       O170   2.075       .  S
Cd157       O159   2.008       .  S
O158        C168   1.273       .  A
O159       Cd160   2.001       .  S
Cd160       O162   2.067       .  S
O161        C168   1.274       .  A
C163        O167   1.273       .  A
C163        C290   1.434       .  S
C164        C274   1.435       .  S
C166        C278   1.434       .  S
C168        C283   1.435       .  S
C169        O170   1.274       .  A
C169        C291   1.435       .  S
C171        C197   1.568       .  S
C171        C286   1.475       .  S
C171        C287   1.475       .  S
C171        C294   1.476       .  S
C172        C221   1.568   1_556  S
C172        C418   1.475   1_455  S
C172        C275   1.474       .  S
C172        C573   1.476   1_455  S
O173        C189   1.273       .  A
O173       Zn473   2.025       .  S
C174        O190   1.274       .  A
C174        O187   1.272       .  A
C174        C247   1.436       .  S
O175        C188   1.273       .  A
O175       Cd476   2.071   1_455  S
O176        C194   1.273       .  A
O176       Cd185   2.069       .  S
O177        C191   1.273       .  A
O178        C189   1.272       .  A
O178       Cd181   2.065       .  S
Zn179       O467   2.025   1_455  S
Zn179       O192   2.020       .  S
Zn179       O478   1.951       .  S
O180        C191   1.273       .  A
O180       Cd479   2.069       .  S
Cd181       O183   2.067       .  S
Cd181       O184   2.001       .  S
Cd182       O469   2.071       .  S
Cd182       O186   2.075       .  S
Cd182       O342   2.075   1_565  S
Cd182       O184   2.008       .  S
O183        C193   1.273       .  A
O184       Zn473   1.951       .  S
O184       Cd332   2.001   1_565  S
Cd185       O474   2.069   1_455  S
Cd185       O187   2.067       .  S
Cd185       O331   2.001       .  S
O186        C193   1.274       .  A
C188        O192   1.273       .  A
C188        C270   1.435       .  S
C189        C254   1.435       .  S
C191        C255   1.433       .  S
C193        C259   1.434       .  S
C194        O195   1.274       .  A
C194        C266   1.435       .  S
O195       Cd329   2.075   1_455  S
C196        C222   1.568       .  S
C196        C250   1.476       .  S
C196        C251   1.475       .  S
C196        C258   1.474       .  S
C197        C262   1.475       .  S
C197        C263   1.476       .  S
C197        C267   1.475       .  S
O198        C214   1.273       .  A
O198       Zn204   2.025       .  S
C199        O215   1.273       .  A
C199        O212   1.272       .  A
C199        C231   1.435       .  S
O200        C213   1.273       .  A
O200       Cd207   2.070       .  S
O201        C219   1.273       .  A
O201       Cd210   2.068       .  S
O202        C216   1.273       .  A
O202       Cd206   2.070       .  S
O203        C214   1.272       .  A
O203       Cd206   2.067       .  S
Zn204       O215   2.025       .  S
Zn204       O217   2.020       .  S
Zn204       O209   1.951       .  S
O205        C216   1.273       .  A
O205       Cd210   2.069       .  S
Cd206       O208   2.068       .  S
Cd206       O209   2.001       .  S
Cd207       O211   2.075       .  S
Cd207       O220   2.076       .  S
Cd207       O209   2.008       .  S
O208        C218   1.273       .  A
O209       Cd210   2.001       .  S
Cd210       O212   2.066       .  S
O211        C218   1.274       .  A
C213        O217   1.273       .  A
C213        C239   1.435       .  S
C214        C226   1.435       .  S
C216        C227   1.434       .  S
C218        C235   1.435       .  S
C219        O220   1.274       .  A
C219        C246   1.435       .  S
C221        C370   1.475   1_455  S
C221        C230   1.474       .  S
C222        C238   1.475       .  S
C222        C242   1.475       .  S
C222        C243   1.476       .  S
C223        C368   1.475       .  S
C223        C224   1.206       .  T
C224        C225   1.412       .  S
C225        C226   1.206       .  T
C227        C228   1.205       .  T
C228        C229   1.410       .  S
C229        C230   1.205       .  T
C231        C232   1.206       .  T
C232        C233   1.411       .  S
C233        C234   1.206       .  T
C235        C236   1.205       .  T
C236        C237   1.411       .  S
C237        C238   1.206       .  T
C240        C241   1.411       .  S
C241        C242   1.206       .  T
C243        C244   1.206       .  T
C244        C245   1.411       .  S
C245        C540   1.206       .  T
C246        C539   1.206   1_455  T
C247        C248   1.206       .  T
C248        C249   1.412       .  S
C249        C250   1.207       .  T
C251        C252   1.206       .  T
C252        C253   1.411       .  S
C253        C254   1.205       .  T
C255        C256   1.204       .  T
C256        C257   1.410       .  S
C257        C258   1.205       .  T
C259        C260   1.205       .  T
C260        C261   1.411       .  S
C261        C262   1.206       .  T
C263        C264   1.206       .  T
C264        C265   1.412       .  S
C265        C266   1.206       .  T
C267        C268   1.206       .  T
C268        C269   1.411       .  S
C269        C270   1.205       .  T
C271        C319   1.475       .  S
C271        C272   1.206       .  T
C272        C273   1.411       .  S
C273        C274   1.205       .  T
C275        C276   1.205       .  T
C276        C277   1.410       .  S
C277        C278   1.205       .  T
C279        C466   1.476       .  S
C279        C280   1.206       .  T
C280        C281   1.412       .  S
C281        C282   1.206       .  T
C283        C284   1.206       .  T
C284        C285   1.411       .  S
C285        C286   1.206       .  T
C287        C288   1.206       .  T
C288        C289   1.411       .  S
C289        C584   1.205   1_455  T
C290        C583   1.205       .  T
C292        C293   1.411       .  S
C293        C294   1.206       .  T
O295        C311   1.273       .  A
O295       Zn301   2.025       .  S
C296        O312   1.273       .  A
C296        O309   1.272       .  A
C296        C429   1.436       .  S
O297        C310   1.273       .  A
O297       Cd304   2.070       .  S
O298        C316   1.273       .  A
O298       Cd307   2.068       .  S
O299        C313   1.273       .  A
O299       Cd303   2.069       .  S
O300        C311   1.272       .  A
O300       Cd303   2.065       .  S
Zn301       O312   2.026       .  S
Zn301       O314   2.019       .  S
Zn301       O306   1.951       .  S
O302        C313   1.273       .  A
O302       Cd307   2.069       .  S
Cd303       O305   2.068       .  S
Cd303       O306   2.001       .  S
Cd304       O308   2.075       .  S
Cd304       O317   2.075       .  S
Cd304       O306   2.008       .  S
O305        C315   1.273       .  A
O306       Cd307   2.001       .  S
Cd307       O309   2.067       .  S
O308        C315   1.274       .  A
C310        O314   1.273       .  A
C310        C437   1.434       .  S
C311        C421   1.435       .  S
C313        C425   1.434       .  S
C315        C430   1.435       .  S
C316        O317   1.274       .  A
C316        C438   1.435       .  S
C318        C344   1.568       .  S
C318        C433   1.475       .  S
C318        C434   1.475       .  S
C318        C441   1.476       .  S
C319        C368   1.568   1_556  S
C319        C422   1.474   1_565  S
O320        C336   1.273       .  A
C321        O337   1.274       .  A
C321        O334   1.272       .  A
C321        C394   1.436       .  S
O322        C335   1.273       .  A
O323        C341   1.273       .  A
O323       Cd332   2.069       .  S
O324        C338   1.273       .  A
O324       Cd475   2.068   1_545  S
O325        C336   1.272       .  A
O325       Cd328   2.065       .  S
Zn326       O484   2.026       .  S
Zn326       O339   2.020       .  S
O327        C338   1.273       .  A
Cd328       O471   2.068       .  S
Cd328       O330   2.067       .  S
Cd328       O331   2.001   1_655  S
Cd329       O333   2.075       .  S
Cd329       O331   2.008   1_655  S
O330        C340   1.273       .  A
Cd332       O334   2.067       .  S
O333        C340   1.274       .  A
C335        O339   1.273       .  A
C335        C417   1.435       .  S
C336        C401   1.435       .  S
O337       Zn473   2.026   1_545  S
C338        C402   1.433       .  S
C340        C406   1.434       .  S
C341        O342   1.274       .  A
C341        C413   1.435       .  S
C343        C369   1.568       .  S
C343        C397   1.476       .  S
C343        C398   1.475       .  S
C343        C405   1.474       .  S
C344        C409   1.475       .  S
C344        C410   1.476       .  S
C344        C414   1.475       .  S
O345        C361   1.273       .  A
O345       Zn351   2.025       .  S
C346        O362   1.273       .  A
C346        O359   1.272       .  A
C346        C378   1.435       .  S
O347        C360   1.273       .  A
O347       Cd354   2.070       .  S
O348        C366   1.273       .  A
O348       Cd357   2.068       .  S
O349        C363   1.273       .  A
O349       Cd353   2.070       .  S
O350        C361   1.272       .  A
O350       Cd353   2.067       .  S
Zn351       O362   2.025       .  S
Zn351       O364   2.021       .  S
Zn351       O356   1.951       .  S
O352        C363   1.273       .  A
O352       Cd357   2.069       .  S
Cd353       O355   2.068       .  S
Cd353       O356   2.001       .  S
Cd354       O358   2.075       .  S
Cd354       O367   2.076       .  S
Cd354       O356   2.008       .  S
O355        C365   1.273       .  A
O356       Cd357   2.001       .  S
Cd357       O359   2.066       .  S
O358        C365   1.274       .  A
C360        O364   1.273       .  A
C360        C386   1.435       .  S
C361        C373   1.435       .  S
C363        C374   1.434       .  S
C365        C382   1.435       .  S
C366        O367   1.274       .  A
C366        C393   1.435       .  S
C368        C377   1.474   1_565  S
C368        C528   1.476       .  S
C369        C385   1.475       .  S
C369        C389   1.475       .  S
C369        C390   1.476       .  S
C370        C371   1.206       .  T
C371        C372   1.412       .  S
C372        C373   1.206       .  T
C374        C375   1.205       .  T
C375        C376   1.410       .  S
C376        C377   1.205       .  T
C378        C379   1.206       .  T
C379        C380   1.411       .  S
C380        C381   1.206       .  T
C381        C515   1.476       .  S
C382        C383   1.205       .  T
C383        C384   1.411       .  S
C384        C385   1.206       .  T
C386        C534   1.205       .  T
C387        C533   1.205   1_545  T
C387        C388   1.411       .  S
C388        C389   1.206       .  T
C390        C391   1.206       .  T
C391        C392   1.411       .  S
C394        C395   1.206       .  T
C395        C396   1.412       .  S
C396        C397   1.207       .  T
C398        C399   1.206       .  T
C399        C400   1.411       .  S
C400        C401   1.205       .  T
C402        C403   1.204       .  T
C403        C404   1.410       .  S
C404        C405   1.205       .  T
C406        C407   1.205       .  T
C407        C408   1.411       .  S
C408        C409   1.206       .  T
C410        C411   1.206       .  T
C411        C412   1.412       .  S
C412        C413   1.206       .  T
C414        C415   1.206       .  T
C415        C416   1.411       .  S
C416        C417   1.205       .  T
C418        C419   1.206       .  T
C419        C420   1.411       .  S
C420        C421   1.205       .  T
C422        C423   1.205       .  T
C423        C424   1.410       .  S
C424        C425   1.205       .  T
C426        C427   1.206       .  T
C427        C428   1.412       .  S
C428        C429   1.206       .  T
C430        C431   1.206       .  T
C431        C432   1.411       .  S
C432        C433   1.206       .  T
C434        C435   1.206       .  T
C435        C436   1.411       .  S
C438        C586   1.205   1_545  T
C439        C585   1.205       .  T
C439        C440   1.411       .  S
C440        C441   1.206       .  T
O442        C458   1.273       .  A
O442       Zn448   2.025       .  S
C443        O459   1.273       .  A
C443        O456   1.272       .  A
C443        C576   1.436       .  S
O444        C457   1.273       .  A
O444       Cd451   2.070       .  S
O445        C463   1.273       .  A
O445       Cd454   2.068       .  S
O446        C460   1.273       .  A
O446       Cd450   2.069       .  S
O447        C458   1.272       .  A
O447       Cd450   2.065       .  S
Zn448       O459   2.026       .  S
Zn448       O461   2.019       .  S
Zn448       O453   1.951       .  S
O449        C460   1.273       .  A
O449       Cd454   2.069       .  S
Cd450       O452   2.068       .  S
Cd450       O453   2.001       .  S
Cd451       O455   2.075       .  S
Cd451       O464   2.075       .  S
Cd451       O453   2.008       .  S
O452        C462   1.273       .  A
O453       Cd454   2.001       .  S
Cd454       O456   2.067       .  S
O455        C462   1.274       .  A
C457        O461   1.273       .  A
C457        C584   1.434       .  S
C458        C568   1.435       .  S
C460        C572   1.434       .  S
C462        C577   1.435       .  S
C463        O464   1.274       .  A
C463        C585   1.435       .  S
C465        C491   1.568       .  S
C465        C580   1.475       .  S
C465        C581   1.475       .  S
C465        C588   1.476       .  S
C466        C515   1.568   1_556  S
C466        C569   1.474       .  S
O467        C483   1.273       .  A
C468        O484   1.274       .  A
C468        O481   1.272       .  A
C468        C541   1.436       .  S
O469        C482   1.273       .  A
O470        C488   1.273       .  A
O470       Cd479   2.069       .  S
O471        C485   1.273       .  A
O472        C483   1.272       .  A
O472       Cd475   2.065       .  S
Zn473       O486   2.020       .  S
O474        C485   1.273       .  A
Cd475       O477   2.067       .  S
Cd475       O478   2.001   1_655  S
Cd476       O480   2.075       .  S
Cd476       O478   2.008   1_655  S
O477        C487   1.273       .  A
Cd479       O481   2.067       .  S
O480        C487   1.274       .  A
C482        O486   1.273       .  A
C482        C564   1.435       .  S
C483        C548   1.435       .  S
C485        C549   1.433       .  S
C487        C553   1.434       .  S
C488        O489   1.274       .  A
C488        C560   1.435       .  S
C490        C516   1.568       .  S
C490        C544   1.476       .  S
C490        C545   1.475       .  S
C490        C552   1.474       .  S
C491        C556   1.475       .  S
C491        C557   1.476       .  S
C491        C561   1.475       .  S
O492        C508   1.273       .  A
O492       Zn498   2.025       .  S
C493        O509   1.273       .  A
C493        O506   1.272       .  A
C493        C525   1.435       .  S
O494        C507   1.273       .  A
O494       Cd501   2.070       .  S
O495        C513   1.273       .  A
O495       Cd504   2.068       .  S
O496        C510   1.273       .  A
O496       Cd500   2.070       .  S
O497        C508   1.272       .  A
O497       Cd500   2.067       .  S
Zn498       O509   2.025       .  S
Zn498       O511   2.020       .  S
Zn498       O503   1.951       .  S
O499        C510   1.273       .  A
O499       Cd504   2.069       .  S
Cd500       O502   2.068       .  S
Cd500       O503   2.001       .  S
Cd501       O505   2.075       .  S
Cd501       O514   2.076       .  S
Cd501       O503   2.008       .  S
O502        C512   1.273       .  A
O503       Cd504   2.001       .  S
Cd504       O506   2.066       .  S
O505        C512   1.274       .  A
C507        O511   1.273       .  A
C507        C533   1.435       .  S
C508        C520   1.435       .  S
C510        C521   1.434       .  S
C512        C529   1.435       .  S
C513        O514   1.274       .  A
C513        C540   1.435       .  S
C515        C524   1.474       .  S
C516        C532   1.475       .  S
C516        C536   1.475       .  S
C516        C537   1.476       .  S
C517        C518   1.206       .  T
C518        C519   1.412       .  S
C519        C520   1.206       .  T
C521        C522   1.205       .  T
C522        C523   1.410       .  S
C523        C524   1.205       .  T
C525        C526   1.206       .  T
C526        C527   1.411       .  S
C527        C528   1.206       .  T
C529        C530   1.205       .  T
C530        C531   1.411       .  S
C531        C532   1.206       .  T
C534        C535   1.411       .  S
C535        C536   1.206       .  T
C537        C538   1.206       .  T
C538        C539   1.411       .  S
C541        C542   1.206       .  T
C542        C543   1.412       .  S
C543        C544   1.207       .  T
C545        C546   1.206       .  T
C546        C547   1.411       .  S
C547        C548   1.205       .  T
C549        C550   1.204       .  T
C550        C551   1.410       .  S
C551        C552   1.205       .  T
C553        C554   1.205       .  T
C554        C555   1.411       .  S
C555        C556   1.206       .  T
C557        C558   1.206       .  T
C558        C559   1.412       .  S
C559        C560   1.206       .  T
C561        C562   1.206       .  T
C562        C563   1.411       .  S
C563        C564   1.205       .  T
C565        C566   1.206       .  T
C566        C567   1.411       .  S
C567        C568   1.205       .  T
C569        C570   1.205       .  T
C570        C571   1.410       .  S
C571        C572   1.205       .  T
C573        C574   1.206       .  T
C574        C575   1.412       .  S
C575        C576   1.206       .  T
C577        C578   1.206       .  T
C578        C579   1.411       .  S
C579        C580   1.206       .  T
C581        C582   1.206       .  T
C582        C583   1.411       .  S
C586        C587   1.411       .  S
C587        C588   1.206       .  T
