geometry optimzed in LAMMPS
_audit_creation_date              2020-11-30 
_audit_creation_method            'lammps2cif' 
_symmetry_space_group_name_H-M    'P1' 
_symmetry_Int_Tables_number       1 
_symmetry_cell_setting            triclinic 
loop_ 
_symmetry_equiv_pos_as_xyz 
  x,y,z 
_cell_length_a                    60.15352116 
_cell_length_b                    60.187017018988726 
_cell_length_c                    77.06769009316989 
_cell_angle_alpha                 90.51808619199964 
_cell_angle_beta                  90.02219863584861 
_cell_angle_gamma                 89.55756525260497 
loop_ 
_atom_site_label 
_atom_site_type_symbol 
_atom_site_fract_x 
_atom_site_fract_y 
_atom_site_fract_z 
_atom_site_charge 
C1          C  0.37596862  0.88185888  0.98397922     0.87300
C2          C  0.40072253  0.87632458  0.98614154    -0.53000
C3          C  0.41051082  0.88687380  0.99987375     0.10200
C4          C  0.39435448  0.90168944  0.01050724     0.21100
C5          C  0.36552576  0.87579398  0.00140686    -0.53700
C6          C  0.37502897  0.88615513  0.01541056     0.10300
C7          C  0.37475900  0.90723671  0.98327494    -0.53200
C8          C  0.38431672  0.91778022  0.99710439     0.10900
H9          H  0.40990105  0.86566477  0.97722096     0.15400
H10         H  0.40227642  0.91016873  0.02171654     0.01100
H11         H  0.35194029  0.86414069  0.00246900     0.15700
H12         H  0.36686287  0.91602259  0.97265201     0.15500
C13         C  0.60099214  0.88485698  0.01806650     0.87300
C14         C  0.57656387  0.87848545  0.01525304    -0.53000
C15         C  0.56679663  0.88895376  0.00160798     0.10200
C16         C  0.58229527  0.90450757  0.99169730     0.21100
C17         C  0.61233690  0.87964954  0.00061848    -0.53700
C18         C  0.60254842  0.88985999  0.98666785     0.10300
C19         C  0.60077326  0.91025857  0.01942717    -0.53200
C20         C  0.59091558  0.92066797  0.00573131     0.10900
H21         H  0.56732579  0.86764547  0.02375561     0.15400
H22         H  0.57401409  0.91284004  0.98063934     0.01100
H23         H  0.62664532  0.86864556  0.99946298     0.15700
H24         H  0.60773985  0.91913216  0.03045927     0.15500
C25         C  0.60172155  0.11251941  0.98608686     0.87300
C26         C  0.57716548  0.11869947  0.98860498    -0.53000
C27         C  0.56746439  0.10828175  0.00223501     0.10200
C28         C  0.58329310  0.09318942  0.01250132     0.21100
C29         C  0.61266925  0.11827501  0.00348552    -0.53700
C30         C  0.60303199  0.10825312  0.01743957     0.10300
C31         C  0.60216711  0.08706172  0.98496908    -0.53200
C32         C  0.59249337  0.07692251  0.99876356     0.10900
H33         H  0.56781785  0.12937992  0.97995700     0.15400
H34         H  0.57517507  0.08488634  0.02359842     0.01100
H35         H  0.62649926  0.12966932  0.00456775     0.15700
H36         H  0.60926600  0.07790556  0.97406667     0.15500
C37         C  0.37813054  0.11104259  0.01749481     0.87300
C38         C  0.40262460  0.11678724  0.01438256    -0.53000
C39         C  0.41189501  0.10558370  0.00070089     0.10200
C40         C  0.39579315  0.09016673  0.99097732     0.21100
C41         C  0.36658616  0.11602659  0.00011991    -0.53700
C42         C  0.37586721  0.10517507  0.98609918     0.10300
C43         C  0.37779958  0.08568407  0.01895110    -0.53200
C44         C  0.38693722  0.07470419  0.00512962     0.10900
H45         H  0.41223079  0.12770920  0.02272784     0.15400
H46         H  0.40355340  0.08118751  0.97985988     0.01100
H47         H  0.35247060  0.12727328  0.99906488     0.15700
H48         H  0.37072463  0.07716984  0.02999933     0.15500
O49         O  0.32559359  0.87543049  0.14163939    -0.57000
C50         C  0.31193072  0.86513601  0.19428865     0.75600
O51         O  0.27079376  0.91185590  0.15927808    -0.58200
C52         C  0.31449349  0.87225724  0.12789690     0.75600
C53         C  0.25526985  0.84715351  0.16162318     0.78000
Cd54       Cd  0.29267816  0.87671650  0.16128479     1.37500
O55         O  0.31908926  0.85591574  0.18051548    -0.57000
O56         O  0.27494000  0.84068934  0.15850993    -0.55800
C57         C  0.28735986  0.92423493  0.16214236     0.77900
O58         O  0.25245460  0.86773139  0.16455889    -0.58200
O59         O  0.29660616  0.87937698  0.19256027    -0.56700
O60         O  0.29371173  0.87030242  0.12967506    -0.56700
O61         O  0.30585322  0.91465706  0.16455706    -0.55800
O62         O  0.29183501  0.12467970  0.19192226    -0.57000
C63         C  0.31102647  0.13292360  0.12658336     0.75600
O64         O  0.26822501  0.09293364  0.15934760    -0.58200
C65         C  0.30943234  0.13579395  0.19388902     0.75600
C66         C  0.25507067  0.16169824  0.16036526     0.78000
Cd67       Cd  0.28984097  0.12840360  0.16020087     1.37500
O68         O  0.32215988  0.13550965  0.14040296    -0.57000
O69         O  0.27539973  0.16643505  0.16203195    -0.55800
C70         C  0.28547453  0.08090568  0.16109356     0.77900
O71         O  0.25040550  0.14127178  0.15887746    -0.58200
O72         O  0.29057816  0.12893676  0.12842049    -0.56700
O73         O  0.31808298  0.14367126  0.18028557    -0.56700
O74         O  0.30381999  0.09087033  0.16237676    -0.55800
O75         O  0.63311688  0.82340957  0.35791318    -0.57000
C76         C  0.63208728  0.80985443  0.30447525     0.75600
O77         O  0.63260947  0.75182286  0.33794202    -0.58200
C78         C  0.62729975  0.81364499  0.37168240     0.75600
C79         C  0.57404553  0.79236168  0.33855624     0.78000
Cd80       Cd  0.62204630  0.79220590  0.33829322     1.37500
O81         O  0.63943820  0.81896869  0.31818195    -0.57000
O82         O  0.58544722  0.80985075  0.33743876    -0.55800
C83         C  0.65310415  0.75542230  0.34048608     0.77900
O84         O  0.58474089  0.77412541  0.33914728    -0.58200
O85         O  0.62018541  0.79282825  0.30640343    -0.56700
O86         O  0.61984649  0.79417160  0.36994533    -0.56700
O87         O  0.65883782  0.77551513  0.34177390    -0.55800
O88         O  0.35090785  0.84168227  0.32171954    -0.57000
C89         C  0.36563315  0.83909706  0.37558127     0.75600
O90         O  0.36126727  0.77656865  0.34454142    -0.58200
C91         C  0.35882316  0.83231558  0.30825283     0.75600
C92         C  0.41783634  0.80896870  0.34252107     0.78000
Cd93       Cd  0.37050516  0.81640031  0.34244234     1.37500
O94         O  0.37157627  0.84967461  0.36224682    -0.57000
O95         O  0.40919723  0.82815058  0.34168419    -0.55800
C96         C  0.34042878  0.77976041  0.34411027     0.77900
O97         O  0.40458463  0.79275566  0.34323592    -0.58200
O98         O  0.36098465  0.81885950  0.37332844    -0.56700
O99         O  0.37250543  0.81665076  0.31069103    -0.56700
O100        O  0.33372018  0.79969129  0.34304324    -0.55800
O101        O  0.66160136  0.85516638  0.17996294    -0.57000
C102        C  0.66882890  0.86704370  0.12669846     0.75600
O103        O  0.70909968  0.90809075  0.16105001    -0.58200
C104        C  0.67108285  0.86187644  0.19370680     0.75600
C105        C  0.72424975  0.83995680  0.15872238     0.78000
Cd106      Cd  0.68910098  0.87221387  0.16031539     1.37500
O107        O  0.65766771  0.86397196  0.14040545    -0.57000
O108        O  0.70388355  0.83502900  0.15863027    -0.55800
C109        C  0.69129133  0.91949972  0.16141072     0.77900
O110        O  0.72898329  0.86042947  0.15972607    -0.58200
O111        O  0.68901402  0.87222536  0.12863821    -0.56700
O112        O  0.68822694  0.87364903  0.19188336    -0.56700
O113        O  0.67318235  0.90898703  0.16164411    -0.55800
O114        O  0.65514840  0.14156544  0.18437479    -0.57000
C115        C  0.65858470  0.12858579  0.13084715     0.75600
O116        O  0.72104625  0.13212254  0.16229248    -0.58200
C117        C  0.66268301  0.13174803  0.19762845     0.75600
C118        C  0.68678188  0.07567976  0.16124459     0.78000
Cd119      Cd  0.68091086  0.12281836  0.16361399     1.37500
O120        O  0.64752479  0.12470403  0.14444659    -0.57000
O121        O  0.66788123  0.08496511  0.16107306    -0.55800
C122        C  0.71768489  0.15292740  0.16276082     0.77900
O123        O  0.70351816  0.08821185  0.16267866    -0.58200
O124        O  0.67928254  0.13108518  0.13271032    -0.56700
O125        O  0.67810929  0.11774339  0.19508163    -0.56700
O126        O  0.69766947  0.15945327  0.16372290    -0.55800
O127        O  0.34478431  0.17238703  0.35865507    -0.57000
C128        C  0.34962691  0.18126673  0.30604210     0.75600
O129        O  0.34771764  0.24314722  0.33997195    -0.58200
C130        C  0.35008969  0.18270590  0.37242151     0.75600
C131        C  0.40448080  0.20227030  0.34015163     0.78000
Cd132      Cd  0.35699171  0.20252687  0.33914966     1.37500
O133        O  0.34027153  0.17436665  0.31966698    -0.57000
O134        O  0.39300631  0.18478744  0.34053459    -0.55800
C135        C  0.32693162  0.23996503  0.33944469     0.77900
O136        O  0.39401163  0.22059570  0.33918183    -0.58200
O137        O  0.36201159  0.19804647  0.30769294    -0.56700
O138        O  0.35760563  0.20210278  0.37070028    -0.56700
O139        O  0.32059908  0.22003859  0.33843105    -0.55800
O140        O  0.62537080  0.15778115  0.32556680    -0.57000
C141        C  0.61148784  0.16597225  0.38009655     0.75600
O142        O  0.61856005  0.22485082  0.34666614    -0.58200
C143        C  0.61881111  0.16775610  0.31203543     0.75600
C144        C  0.56063909  0.19122214  0.34417604     0.78000
Cd145      Cd  0.60788319  0.18532384  0.34588991     1.37500
O146        O  0.61067294  0.15359662  0.36671026    -0.57000
O147        O  0.56970250  0.17221408  0.34343992    -0.55800
C148        C  0.63928677  0.22090515  0.34652925     0.77900
O149        O  0.57342298  0.20776062  0.34558365    -0.58200
O150        O  0.61156816  0.18666788  0.37752104    -0.56700
O151        O  0.60707544  0.18502233  0.31431348    -0.56700
O152        O  0.64529912  0.20070552  0.34617425    -0.55800
C153        C  0.60084179  0.88870112  0.47722732     0.87300
C154        C  0.60603661  0.91365965  0.47781292    -0.53000
C155        C  0.59695682  0.92457126  0.49173804     0.10200
C156        C  0.58351313  0.90952286  0.50386317     0.21100
C157        C  0.60871171  0.87983007  0.49483867    -0.53700
C158        C  0.59959223  0.89060507  0.50887804     0.10300
C159        C  0.57538958  0.88767131  0.47795266    -0.53200
C160        C  0.56627785  0.89844788  0.49189859     0.10900
H161        H  0.61592949  0.92218580  0.46825157     0.15400
H162        H  0.57586628  0.91850734  0.51499988     0.01100
H163        H  0.62033375  0.86604210  0.49592416     0.15700
H164        H  0.56549494  0.87886390  0.46835427     0.15500
C165        C  0.37607401  0.88780102  0.52332222     0.87300
C166        C  0.37104455  0.91284072  0.52286203    -0.53000
C167        C  0.38037341  0.92329976  0.50908249     0.10200
C168        C  0.39372504  0.90787467  0.49692436     0.21100
C169        C  0.36832585  0.87878550  0.50562965    -0.53700
C170        C  0.37760211  0.88922664  0.49169300     0.10300
C171        C  0.40154182  0.88624862  0.52275523    -0.53200
C172        C  0.41079273  0.89667886  0.50892106     0.10900
H173        H  0.36148564  0.92181484  0.53260161     0.15400
H174        H  0.40151480  0.91674082  0.48598845     0.01100
H175        H  0.35672688  0.86514603  0.50439544     0.15700
H176        H  0.41134290  0.87752832  0.53242044     0.15500
C177        C  0.59972289  0.11475661  0.52680677     0.87300
C178        C  0.60607069  0.09002748  0.52534575    -0.53000
C179        C  0.59703501  0.07944820  0.51132034     0.10200
C180        C  0.58238783  0.09454555  0.49996054     0.21100
C181        C  0.60648454  0.12471235  0.50926227    -0.53700
C182        C  0.59739687  0.11414710  0.49513858     0.10300
C183        C  0.57422005  0.11502485  0.52660961    -0.53200
C184        C  0.56504070  0.10459977  0.51254639     0.10900
H185        H  0.61669137  0.08141614  0.53448378     0.15400
H186        H  0.57481310  0.08577492  0.48873788     0.01100
H187        H  0.61743308  0.13888504  0.50822360     0.15700
H188        H  0.56432873  0.12317820  0.53662483     0.15500
C189        C  0.37424123  0.11382059  0.47951663     0.87300
C190        C  0.36896742  0.08897835  0.48055025    -0.53000
C191        C  0.37869184  0.07855733  0.49426749     0.10200
C192        C  0.39262700  0.09401961  0.50589950     0.21100
C193        C  0.36702315  0.12340761  0.49723939    -0.53700
C194        C  0.37657385  0.11299867  0.51117554     0.10300
C195        C  0.39971855  0.11484600  0.47961715    -0.53200
C196        C  0.40940977  0.10463669  0.49343275     0.10900
H197        H  0.35854872  0.08015433  0.47139071     0.15400
H198        H  0.40075214  0.08540751  0.51687098     0.01100
H199        H  0.35522858  0.13705105  0.49847565     0.15700
H200        H  0.40923189  0.12319204  0.46966275     0.15500
O201        O  0.31426616  0.84966867  0.82255677    -0.57000
C202        C  0.30754341  0.86220723  0.87584033     0.75600
O203        O  0.26642567  0.90373922  0.83965835    -0.58200
C204        C  0.30483473  0.85630349  0.80880713     0.75600
C205        C  0.25058991  0.83608854  0.84456001     0.78000
Cd206      Cd  0.28645748  0.86752541  0.84247110     1.37500
O207        O  0.31834339  0.85985071  0.86182729    -0.57000
O208        O  0.27044201  0.83050358  0.84123017    -0.55800
C209        C  0.28399622  0.91524154  0.83965390     0.77900
O210        O  0.24678156  0.85666542  0.84680205    -0.58200
O211        O  0.28707326  0.86672512  0.87445593    -0.56700
O212        O  0.28734484  0.86786391  0.81072256    -0.56700
O213        O  0.30218354  0.90477830  0.84113905    -0.55800
O214        O  0.32307202  0.13668827  0.81775390    -0.57000
C215        C  0.31934702  0.12175101  0.87176258     0.75600
O216        O  0.25656697  0.12889343  0.84108765    -0.58200
C217        C  0.31446560  0.12828459  0.80419041     0.75600
C218        C  0.29025125  0.07154575  0.83574953     0.78000
Cd219      Cd  0.29648989  0.11874135  0.83820000     1.37500
O220        O  0.33030801  0.12053665  0.85775702    -0.57000
O221        O  0.30889157  0.08074813  0.83390287    -0.55800
C222        C  0.25938178  0.14934344  0.83814277     0.77900
O223        O  0.27373551  0.08421917  0.83863663    -0.58200
O224        O  0.29847528  0.12293074  0.87015703    -0.56700
O225        O  0.29800450  0.11570846  0.80642993    -0.56700
O226        O  0.27915688  0.15556152  0.83561083    -0.55800
O227        O  0.35315813  0.16087754  0.67839581    -0.57000
C228        C  0.36452452  0.16664884  0.62593603     0.75600
O229        O  0.35839991  0.22864958  0.66028236    -0.58200
C230        C  0.36169072  0.16853928  0.69222278     0.75600
C231        C  0.41770433  0.19859648  0.66148516     0.78000
Cd232      Cd  0.37063176  0.18909916  0.65926565     1.37500
O233        O  0.36169682  0.18731930  0.62800133    -0.57000
O234        O  0.40949794  0.17987443  0.66490756    -0.55800
C235        C  0.33798410  0.22433519  0.66222535     0.77900
O236        O  0.40425795  0.21338801  0.65624684    -0.58200
O237        O  0.37020845  0.15590785  0.63927619    -0.56700
O238        O  0.37440071  0.18500699  0.69063965    -0.56700
O239        O  0.33281770  0.20403040  0.66267802    -0.55800
O240        O  0.63643474  0.18260958  0.68721053    -0.57000
C241        C  0.62574580  0.18988265  0.63285617     0.75600
O242        O  0.58474450  0.23054102  0.66371772    -0.58200
C243        C  0.63030545  0.19295419  0.70083686     0.75600
C244        C  0.65353781  0.24615085  0.66704319     0.78000
Cd245      Cd  0.62128768  0.21085821  0.66684742     1.37500
O246        O  0.63117915  0.17945573  0.64646369    -0.57000
O247        O  0.65881885  0.22583882  0.66578690    -0.55800
C248        C  0.57345296  0.21370686  0.66790926     0.77900
O249        O  0.63295768  0.25062776  0.66823010    -0.58200
O250        O  0.61911987  0.20969297  0.63500324    -0.56700
O251        O  0.61998296  0.21110896  0.69869013    -0.56700
O252        O  0.58424336  0.19631328  0.67172185    -0.55800
O253        O  0.34026547  0.82084159  0.68255214    -0.57000
C254        C  0.35105295  0.81324168  0.62782074     0.75600
O255        O  0.39457131  0.77747274  0.66109338    -0.58200
C256        C  0.34716621  0.81072991  0.69591274     0.75600
C257        C  0.32709761  0.75683442  0.65997925     0.78000
Cd258      Cd  0.35683303  0.79385784  0.66150879     1.37500
O259        O  0.34338300  0.82303653  0.64121482    -0.57000
O260        O  0.32086414  0.77688352  0.65910622    -0.55800
C261        C  0.40422776  0.79615050  0.66146694     0.77900
O262        O  0.34784355  0.75323009  0.66122900    -0.58200
O263        O  0.36041655  0.79461349  0.63009016    -0.56700
O264        O  0.35848099  0.79321989  0.69331278    -0.56700
O265        O  0.39198147  0.81331310  0.66219486    -0.55800
O266        O  0.62521254  0.84080008  0.67656416    -0.57000
C267        C  0.61290162  0.83574709  0.62280939     0.75600
O268        O  0.61846471  0.77408639  0.65385307    -0.58200
C269        C  0.61799927  0.83147370  0.69010514     0.75600
C270        C  0.56031952  0.80779978  0.65654497     0.78000
Cd271      Cd  0.60772531  0.81393254  0.65597539     1.37500
O272        O  0.60785577  0.84683617  0.63629983    -0.57000
O273        O  0.56908502  0.82680022  0.65695970    -0.55800
C274        C  0.63919144  0.77761621  0.65471724     0.77900
O275        O  0.57343589  0.79125811  0.65564438    -0.58200
O276        O  0.61628205  0.81519286  0.62482920    -0.56700
O277        O  0.60593402  0.81462191  0.68781348    -0.56700
O278        O  0.64517141  0.79768088  0.65603748    -0.55800
O279        O  0.65184307  0.86313831  0.81775760    -0.57000
C280        C  0.65769975  0.87629424  0.87174520     0.75600
O281        O  0.71917220  0.86973520  0.83668231    -0.58200
C282        C  0.66116431  0.87022917  0.80415456     0.75600
C283        C  0.68410329  0.92732631  0.83797747     0.78000
Cd284      Cd  0.67921292  0.88016766  0.83808287     1.37500
O285        O  0.64633461  0.87800908  0.85797154    -0.57000
O286        O  0.66551423  0.91794387  0.83626300    -0.55800
C287        C  0.71570872  0.84910896  0.83824767     0.77900
O288        O  0.70100436  0.91485849  0.83968785    -0.58200
O289        O  0.67856471  0.87535654  0.86986259    -0.56700
O290        O  0.67838050  0.88180840  0.80630975    -0.56700
O291        O  0.69566964  0.84314208  0.83976910    -0.55800
O292        O  0.66264540  0.15083627  0.82630258    -0.57000
C293        C  0.67047332  0.13467453  0.87885651     0.75600
O294        O  0.70963446  0.09449621  0.84328372    -0.58200
C295        C  0.67079086  0.14313315  0.81231475     0.75600
C296        C  0.72546595  0.16185971  0.84580581     0.78000
Cd297      Cd  0.68983915  0.13073233  0.84506635     1.37500
O298        O  0.65917441  0.13892801  0.86538712    -0.57000
O299        O  0.70554063  0.16697614  0.84922913    -0.55800
C300        C  0.69184487  0.08331408  0.84321451     0.77900
O301        O  0.72959762  0.14160496  0.84239268    -0.58200
O302        O  0.69059946  0.12907100  0.87664194    -0.56700
O303        O  0.68670802  0.12945805  0.81371659    -0.56700
O304        O  0.67372891  0.09406477  0.84403849    -0.55800
C305        C  0.87473187  0.61133966  0.97791410     0.87300
C306        C  0.86997016  0.58626516  0.97866033    -0.53000
C307        C  0.87902683  0.57594003  0.99279139     0.10200
C308        C  0.89175501  0.59184193  0.00502571     0.21100
C309        C  0.86615031  0.62069559  0.99530534    -0.53700
C310        C  0.87503278  0.61062568  0.00960474     0.10300
C311        C  0.90013369  0.61282073  0.97907401    -0.53200
C312        C  0.90911662  0.60262375  0.99318360     0.10900
H313        H  0.86054257  0.57731480  0.96891927     0.15400
H314        H  0.89942394  0.58362445  0.01637989     0.01100
H315        H  0.85413797  0.63420802  0.99608518     0.15700
H316        H  0.91019633  0.62100625  0.96936575     0.15500
C317        C  0.87656411  0.38589590  0.02701667     0.87300
C318        C  0.87016056  0.41060837  0.02544710    -0.53000
C319        C  0.87885878  0.42058340  0.01112869     0.10200
C320        C  0.89299915  0.40497618  0.99964436     0.21100
C321        C  0.86927921  0.37521143  0.00979839    -0.53700
C322        C  0.87794869  0.38507420  0.99543984     0.10300
C323        C  0.90202356  0.38567172  0.02638823    -0.53200
C324        C  0.91072246  0.39571192  0.01213200     0.10900
H325        H  0.86019497  0.41972064  0.03486415     0.15400
H326        H  0.90009905  0.41321557  0.98810136     0.01100
H327        H  0.85842259  0.36089905  0.00908768     0.15700
H328        H  0.91222551  0.37821897  0.03643975     0.15500
C329        C  0.09956627  0.38365687  0.97785102     0.87300
C330        C  0.10615390  0.40828343  0.97919528    -0.53000
C331        C  0.09776938  0.41903165  0.99348850     0.10200
C332        C  0.08367645  0.40414145  0.00524670     0.21100
C333        C  0.10705755  0.37346116  0.99512430    -0.53700
C334        C  0.09876224  0.38409613  0.00954651     0.10300
C335        C  0.07412037  0.38405953  0.97873659    -0.53200
C336        C  0.06570764  0.39476871  0.99299213     0.10900
H337        H  0.11606790  0.41684398  0.96965874     0.15400
H338        H  0.07667901  0.41298739  0.01671787     0.01100
H339        H  0.11789285  0.35898677  0.99578650     0.15700
H340        H  0.06367522  0.37651535  0.96884320     0.15500
C341        C  0.09982488  0.61056405  0.02516539     0.87300
C342        C  0.10369881  0.58535168  0.02443334    -0.53000
C343        C  0.09462192  0.57511244  0.01028263     0.10200
C344        C  0.08253000  0.59132678  0.99790106     0.21100
C345        C  0.10901533  0.61913505  0.00795528    -0.53700
C346        C  0.09999040  0.60927238  0.99350377     0.10300
C347        C  0.07462734  0.61351055  0.02375516    -0.53200
C348        C  0.06530676  0.60338676  0.00964376     0.10900
H349        H  0.11295753  0.57623167  0.03412497     0.15400
H350        H  0.07496735  0.58304662  0.98647152     0.01100
H351        H  0.12143393  0.63208708  0.00739415     0.15700
H352        H  0.06499002  0.62266043  0.03339243     0.15500
O353        O  0.81233696  0.34783096  0.32527663    -0.57000
C354        C  0.80550828  0.35815665  0.37890011     0.75600
O355        O  0.76545731  0.40061305  0.34539083    -0.58200
C356        C  0.80362439  0.35599651  0.31176820     0.75600
C357        C  0.74935892  0.33173767  0.34747972     0.78000
Cd358      Cd  0.78471524  0.36377728  0.34566549     1.37500
O359        O  0.81599200  0.35321932  0.36510828    -0.57000
O360        O  0.76968459  0.32630963  0.34697325    -0.55800
C361        C  0.78345511  0.41147090  0.34604125     0.77900
O362        O  0.74489700  0.35234476  0.34691294    -0.58200
O363        O  0.78575941  0.36512324  0.37717558    -0.56700
O364        O  0.78613950  0.36751095  0.31388035    -0.56700
O365        O  0.80131850  0.40030446  0.34658631    -0.55800
O366        O  0.83636492  0.61223263  0.36206338    -0.57000
C367        C  0.81723784  0.62366469  0.30810668     0.75600
O368        O  0.77930091  0.58085404  0.34703152    -0.58200
C369        C  0.82660953  0.61913307  0.37566166     0.75600
C370        C  0.76615708  0.64620372  0.34628647     0.78000
Cd371      Cd  0.80227920  0.61474843  0.34326009     1.37500
O372        O  0.82674720  0.63261211  0.32106519    -0.57000
O373        O  0.78633658  0.65204810  0.34643219    -0.55800
C374        C  0.79552855  0.56762175  0.34462594     0.77900
O375        O  0.76240057  0.62557383  0.34472634    -0.58200
O376        O  0.80137660  0.61076683  0.31143872    -0.56700
O377        O  0.80654416  0.62501289  0.37394816    -0.56700
O378        O  0.81421375  0.57622806  0.34164457    -0.55800
O379        O  0.84292958  0.65510118  0.17920072    -0.57000
C380        C  0.85364611  0.66426009  0.12425019     0.75600
O381        O  0.84714248  0.72366132  0.15843302    -0.58200
C382        C  0.84935124  0.66532802  0.19274589     0.75600
C383        C  0.90565815  0.69035916  0.15826168     0.78000
Cd384      Cd  0.85792367  0.68402929  0.15852877     1.37500
O385        O  0.85274733  0.68499914  0.12686016    -0.57000
O386        O  0.89695463  0.67136524  0.15705683    -0.55800
C387        C  0.82646818  0.72041347  0.15683000     0.77900
O388        O  0.89238288  0.70672129  0.15954097    -0.58200
O389        O  0.85534325  0.65219804  0.13760057    -0.56700
O390        O  0.85904678  0.68357426  0.19033683    -0.56700
O391        O  0.82019664  0.70036587  0.15623742    -0.55800
O392        O  0.12089636  0.67291979  0.14599912    -0.57000
C393        C  0.12301356  0.68493127  0.19832690     0.75600
O394        O  0.12051984  0.74414208  0.16780564    -0.58200
C395        C  0.11691999  0.68364334  0.13224899     0.75600
C396        C  0.06222039  0.70259078  0.16449002     0.78000
Cd397      Cd  0.11033992  0.70381297  0.16555918     1.37500
O398        O  0.13023072  0.67687050  0.18416445    -0.57000
O399        O  0.07430311  0.68531840  0.16468625    -0.55800
C400        C  0.14082158  0.74066306  0.16413747     0.77900
O401        O  0.07222838  0.72106621  0.16528125    -0.58200
O402        O  0.10955098  0.70110284  0.19728100    -0.56700
O403        O  0.11051238  0.70360924  0.13400352    -0.56700
O404        O  0.14648146  0.72075419  0.16113105    -0.55800
O405        O  0.14441275  0.37879942  0.36068496    -0.57000
C406        C  0.16342402  0.36903219  0.30729794     0.75600
O407        O  0.20107263  0.41543653  0.34311977    -0.58200
C408        C  0.15533892  0.37597451  0.37456240     0.75600
C409        C  0.21437969  0.34957329  0.34437857     0.78000
Cd410      Cd  0.17852355  0.38101241  0.34187502     1.37500
O411        O  0.18029529  0.38096410  0.30997645    -0.57000
O412        O  0.19434250  0.34387197  0.34236078    -0.55800
C413        C  0.18476070  0.42850586  0.34082739     0.77900
O414        O  0.21819436  0.37021273  0.34553930    -0.58200
O415        O  0.15303072  0.36260716  0.32063275    -0.56700
O416        O  0.17621923  0.37491433  0.37308367    -0.56700
O417        O  0.16587055  0.41967321  0.33908472    -0.55800
O418        O  0.17034588  0.64948688  0.32218706    -0.57000
C419        C  0.18209156  0.63766357  0.37446384     0.75600
O420        O  0.21857587  0.59499293  0.33973958    -0.58200
C421        C  0.17849808  0.64314754  0.30779874     0.75600
C422        C  0.23629242  0.66346154  0.34055246     0.78000
Cd423      Cd  0.20012315  0.63231003  0.34007804     1.37500
O424        O  0.17130881  0.64413059  0.36129214    -0.57000
O425        O  0.21615373  0.66894653  0.34254897    -0.55800
C426        C  0.20038115  0.58451272  0.33879595     0.77900
O427        O  0.24036253  0.64297332  0.33805584    -0.58200
O428        O  0.20103838  0.62911288  0.37170439    -0.56700
O429        O  0.19632518  0.63189853  0.30840199    -0.56700
O430        O  0.18277547  0.59607535  0.33814805    -0.55800
O431        O  0.85311238  0.32583315  0.14806205    -0.57000
C432        C  0.85410651  0.31398085  0.20085589     0.75600
O433        O  0.85289358  0.25488572  0.16706719    -0.58200
C434        C  0.85768881  0.31537389  0.13415971     0.75600
C435        C  0.91089657  0.29426806  0.16779648     0.78000
Cd436      Cd  0.86343171  0.29494199  0.16736274     1.37500
O437        O  0.84704348  0.32305868  0.18712980    -0.57000
O438        O  0.89965700  0.31205655  0.16872421    -0.55800
C439        C  0.83224143  0.25898199  0.16589853     0.77900
O440        O  0.90018609  0.27622187  0.16685600    -0.58200
O441        O  0.86540824  0.29629899  0.19905035    -0.56700
O442        O  0.86440578  0.29552708  0.13564889    -0.56700
O443        O  0.82646590  0.27920675  0.16563943    -0.55800
O444        O  0.13267730  0.33743563  0.17864310    -0.57000
C445        C  0.11539217  0.33182549  0.12441857     0.75600
O446        O  0.12504083  0.27129721  0.15568223    -0.58200
C447        C  0.12491714  0.32865383  0.19225178     0.75600
C448        C  0.06673063  0.30517993  0.16131009     0.78000
Cd449      Cd  0.11385829  0.31087910  0.15825758     1.37500
O450        O  0.11456976  0.34355956  0.13814846    -0.57000
O451        O  0.07587157  0.32400646  0.16188797    -0.55800
C452        C  0.14574301  0.27498756  0.15634366     0.77900
O453        O  0.07940413  0.28843284  0.15931423    -0.58200
O454        O  0.11628162  0.31104454  0.12644677    -0.56700
O455        O  0.11229409  0.31218732  0.19003931    -0.56700
O456        O  0.15157897  0.29508779  0.15770489    -0.55800
C457        C  0.87816707  0.38251741  0.48444539     0.87300
C458        C  0.90351399  0.37963160  0.48467902    -0.53000
C459        C  0.91368020  0.39038844  0.49808266     0.10200
C460        C  0.89752699  0.40264422  0.51041422     0.21100
C461        C  0.87036290  0.37457151  0.50227996    -0.53700
C462        C  0.88035432  0.38515178  0.51599087     0.10300
C463        C  0.87445802  0.40776669  0.48480115    -0.53200
C464        C  0.88463359  0.41836994  0.49832324     0.10900
H465        H  0.91290642  0.37047320  0.47496086     0.15400
H466        H  0.90591127  0.41137221  0.52129937     0.01100
H467        H  0.85772966  0.36196353  0.50380825     0.15700
H468        H  0.86492378  0.41648026  0.47497543     0.15500
C469        C  0.88313265  0.61037929  0.52082726     0.87300
C470        C  0.90839449  0.61392639  0.52047834    -0.53000
C471        C  0.91891018  0.60363000  0.50688334     0.10200
C472        C  0.90306824  0.59083406  0.49469072     0.21100
C473        C  0.87494865  0.61826322  0.50303885    -0.53700
C474        C  0.88515843  0.60793900  0.48921105     0.10300
C475        C  0.88040850  0.58514744  0.52040970    -0.53200
C476        C  0.89080684  0.57485015  0.50682687     0.10900
H477        H  0.91738016  0.62356340  0.53009066     0.15400
H478        H  0.91168060  0.58218170  0.48382263     0.01100
H479        H  0.86185161  0.63060829  0.50171655     0.15700
H480        H  0.87109882  0.57617357  0.53014692     0.15500
C481        C  0.11097906  0.61415806  0.48062063     0.87300
C482        C  0.08578343  0.61866011  0.48139681    -0.53000
C483        C  0.07540244  0.60884377  0.49504281     0.10200
C484        C  0.09122421  0.59569626  0.50690194     0.21100
C485        C  0.11983785  0.62183894  0.49833331    -0.53700
C486        C  0.10951392  0.61226209  0.51219015     0.10300
C487        C  0.11304470  0.58872924  0.48079327    -0.53200
C488        C  0.10274058  0.57900481  0.49452380     0.10900
H489        H  0.07663051  0.62817473  0.47186999     0.15400
H490        H  0.08269779  0.58756777  0.51787208     0.01100
H491        H  0.13309553  0.63386437  0.49968069     0.15700
H492        H  0.12171851  0.57925137  0.47078717     0.15500
C493        C  0.10537829  0.38726175  0.52122713     0.87300
C494        C  0.08040016  0.38259219  0.52021506    -0.53000
C495        C  0.06989323  0.39290421  0.50681759     0.10200
C496        C  0.08535569  0.40679056  0.49537257     0.21100
C497        C  0.11448059  0.38049373  0.50338809    -0.53700
C498        C  0.10409734  0.39067414  0.48975593     0.10300
C499        C  0.10690004  0.41269741  0.52178647    -0.53200
C500        C  0.09647196  0.42301913  0.50827261     0.10900
H501        H  0.07142355  0.37252332  0.52939848     0.15400
H502        H  0.07668697  0.41519971  0.48452030     0.01100
H503        H  0.12803434  0.36864198  0.50179552     0.15700
H504        H  0.11562081  0.42168664  0.53196348     0.15500
O505        O  0.86174909  0.31020547  0.87855660    -0.57000
C506        C  0.85527366  0.33164679  0.81323195     0.75600
O507        O  0.90139641  0.32374571  0.84781220    -0.58200
C508        C  0.85896107  0.33080281  0.88108376     0.75600
C509        C  0.83235039  0.27521615  0.84612776     0.78000
Cd510      Cd  0.86296474  0.31140088  0.84680547     1.37500
O511        O  0.86827239  0.31531792  0.81534528    -0.57000
O512        O  0.82600354  0.29505532  0.84873050    -0.55800
C513        C  0.90993304  0.30446880  0.84767762     0.77900
O514        O  0.85293414  0.27199230  0.84377144    -0.58200
O515        O  0.84570417  0.33917026  0.82673657    -0.56700
O516        O  0.85692373  0.34273846  0.86769268    -0.56700
O517        O  0.89672537  0.28820583  0.84714341    -0.55800
O518        O  0.10925927  0.29327134  0.80389965    -0.57000
C519        C  0.11876151  0.31209863  0.86956584     0.75600
O520        O  0.07630848  0.30911542  0.83715904    -0.58200
C521        C  0.11910666  0.31164427  0.80224381     0.75600
C522        C  0.14475143  0.25704610  0.83531111     0.78000
Cd523      Cd  0.11232026  0.29220838  0.83578386     1.37500
O524        O  0.12490689  0.32200591  0.85595315    -0.57000
O525        O  0.14980209  0.27730885  0.83407572    -0.55800
C526        C  0.06508547  0.29146507  0.83741422     0.77900
O527        O  0.12427867  0.25259267  0.83680245    -0.58200
O528        O  0.11055543  0.29298459  0.86752688    -0.56700
O529        O  0.12530650  0.32131329  0.81607460    -0.56700
O530        O  0.07569612  0.27320916  0.83614449    -0.55800
O531        O  0.16383764  0.35656603  0.63955282    -0.57000
C532        C  0.17050576  0.35903485  0.69354716     0.75600
O533        O  0.23190391  0.35737040  0.66272917    -0.58200
C534        C  0.17577772  0.36069825  0.62644465     0.75600
C535        C  0.19281785  0.41573275  0.66151050     0.78000
Cd536      Cd  0.19208888  0.36811722  0.66107675     1.37500
O537        O  0.16242644  0.35216187  0.67931175    -0.57000
O538        O  0.17513745  0.40463904  0.66006259    -0.55800
C539        C  0.22801623  0.33669674  0.66285633     0.77900
O540        O  0.21084988  0.40482728  0.66287766    -0.58200
O541        O  0.18805709  0.37040639  0.69268663    -0.56700
O542        O  0.19510780  0.36793483  0.62938275    -0.56700
O543        O  0.20789534  0.33093132  0.66205581    -0.55800
O544        O  0.14463538  0.62201663  0.64192962    -0.57000
C545        C  0.16086564  0.62833505  0.69639407     0.75600
O546        O  0.20028920  0.58500545  0.66224025    -0.58200
C547        C  0.15634150  0.62513439  0.62850190     0.75600
C548        C  0.21282906  0.65053110  0.66042204     0.78000
Cd549      Cd  0.17731758  0.61927930  0.66182317     1.37500
O550        O  0.15009808  0.63512248  0.68329192    -0.57000
O551        O  0.19266384  0.65665864  0.66130290    -0.55800
C552        C  0.18383407  0.57207143  0.66122059     0.77900
O553        O  0.21668742  0.62981107  0.66004289    -0.58200
O554        O  0.17845841  0.61741594  0.69336975    -0.56700
O555        O  0.17710914  0.62626962  0.63070653    -0.56700
O556        O  0.16477900  0.58097897  0.66034039    -0.55800
O557        O  0.81411569  0.65059574  0.67828026    -0.57000
C558        C  0.80578506  0.63946050  0.62458305     0.75600
O559        O  0.76858477  0.59729997  0.66106295    -0.58200
C560        C  0.80561169  0.64271550  0.69194016     0.75600
C561        C  0.74971449  0.66545534  0.65693533     0.78000
Cd562      Cd  0.78607335  0.63426844  0.65826717     1.37500
O563        O  0.81625418  0.64459132  0.63830954    -0.57000
O564        O  0.76969201  0.67103244  0.65937482    -0.55800
C565        C  0.78674247  0.58683283  0.65866731     0.77900
O566        O  0.74593701  0.64483975  0.65528716    -0.58200
O567        O  0.78599162  0.63294870  0.62640005    -0.56700
O568        O  0.78820716  0.63128265  0.69001333    -0.56700
O569        O  0.80394319  0.59830227  0.65620731    -0.55800
O570        O  0.83149640  0.36814923  0.68572737    -0.57000
C571        C  0.82573414  0.37749472  0.63080570     0.75600
O572        O  0.76494967  0.37262588  0.66537887    -0.58200
C573        C  0.82290490  0.37740999  0.69898401     0.75600
C574        C  0.79743562  0.43084297  0.66054729     0.78000
Cd575      Cd  0.80452052  0.38394188  0.66432953     1.37500
O576        O  0.83737360  0.38009594  0.64438577    -0.57000
O577        O  0.81661859  0.42215725  0.66088861    -0.55800
C578        C  0.76886778  0.35195323  0.66423616     0.77900
O579        O  0.78109834  0.41788171  0.66224998    -0.58200
O580        O  0.80491697  0.37688684  0.63293031    -0.56700
O581        O  0.80659924  0.39025833  0.69620922    -0.56700
O582        O  0.78909271  0.34611695  0.66316817    -0.55800
O583        O  0.85181363  0.67370078  0.85691157    -0.57000
C584        C  0.85316609  0.68555178  0.80363327     0.75600
O585        O  0.85122854  0.74500853  0.83596332    -0.58200
C586        C  0.85701837  0.68362902  0.87089686     0.75600
C587        C  0.91010788  0.70454475  0.83793576     0.78000
Cd588      Cd  0.86227328  0.70470190  0.83757103     1.37500
O589        O  0.86505914  0.70261317  0.80567966    -0.57000
O590        O  0.89871672  0.68711849  0.83620571    -0.55800
C591        C  0.83087198  0.74147886  0.83911311     0.77900
O592        O  0.89945156  0.72278121  0.83918615    -0.58200
O593        O  0.84515816  0.67716262  0.81727506    -0.56700
O594        O  0.86419273  0.70323295  0.86949044    -0.56700
O595        O  0.82547011  0.72150849  0.84156380    -0.55800
O596        O  0.11675111  0.65137054  0.86545182    -0.57000
C597        C  0.12429860  0.66861360  0.81171264     0.75600
O598        O  0.07873209  0.70650569  0.84657281    -0.58200
C599        C  0.11937131  0.66230311  0.87942198     0.75600
C600        C  0.14421077  0.72154698  0.84757628     0.78000
Cd601      Cd  0.11390686  0.68476438  0.84634691     1.37500
O602        O  0.13258176  0.65911746  0.82487311    -0.57000
O603        O  0.15054548  0.70158558  0.84558317    -0.55800
C604        C  0.06623951  0.68974721  0.84508377     0.77900
O605        O  0.12349460  0.72487478  0.84934039    -0.58200
O606        O  0.11145318  0.68490292  0.81467721    -0.56700
O607        O  0.12043824  0.68316216  0.87799448    -0.56700
O608        O  0.07572285  0.67094536  0.84433932    -0.55800
C609        C  0.96737238  0.68873953  0.83954468     0.21100
C610        C  0.98551431  0.67395475  0.83960475    -0.38800
C611        C  0.00644720  0.68369092  0.84166718     0.20100
C612        C  0.00910556  0.70641587  0.84355158     0.22700
C613        C  0.99091838  0.72120170  0.84356288    -0.39300
C614        C  0.96994577  0.71146667  0.84146854     0.21500
N615        N  0.94582084  0.68360544  0.83781683    -0.32600
C616        C  0.93451176  0.70315300  0.83867836    -0.10100
C617        C  0.94897374  0.72096155  0.84093832    -0.28900
N618        N  0.03074324  0.71150011  0.84509695    -0.45500
C619        C  0.04189882  0.69187132  0.84419098    -0.04800
C620        C  0.02731848  0.67414165  0.84208034    -0.22200
H621        H  0.98347866  0.65618716  0.83809870     0.19700
H622        H  0.99295694  0.73896905  0.84503699     0.18400
H623        H  0.94471356  0.73840473  0.84219153     0.14700
H624        H  0.03145860  0.65666060  0.84087664     0.14600
H625        H  0.93917743  0.66771653  0.83631013     0.32800
H626        H  0.03751350  0.72733348  0.84658548     0.35500
C627        C  0.83494791  0.66096105  0.72984138     0.21100
C628        C  0.84920005  0.67453916  0.73963490    -0.38800
C629        C  0.84782034  0.67228983  0.75772068     0.20100
C630        C  0.83353519  0.65744166  0.76548662     0.22700
C631        C  0.81936907  0.64375773  0.75568237    -0.39300
C632        C  0.82054306  0.64621874  0.73759632     0.21500
N633        N  0.83191246  0.66117029  0.71254307    -0.32600
C634        C  0.81528686  0.64664304  0.70926924    -0.10100
C635        C  0.80786908  0.63688518  0.72455864    -0.28900
N636        N  0.83419637  0.65966221  0.78287842    -0.45500
C637        C  0.84879054  0.67623537  0.78619401    -0.04800
C638        C  0.85778391  0.68435658  0.77083118    -0.22200
H639        H  0.85993650  0.68660715  0.73364187     0.19700
H640        H  0.80765346  0.63266618  0.76171448     0.18400
H641        H  0.79450050  0.62510806  0.72599130     0.14700
H642        H  0.86930047  0.69795055  0.76942058     0.14600
H643        H  0.84008617  0.67115693  0.70359219     0.32800
H644        H  0.82458791  0.65113130  0.79188816     0.35500
C645        C  0.77899402  0.52811479  0.65911232     0.21100
C646        C  0.76737576  0.50803469  0.66016021    -0.38800
C647        C  0.78037843  0.48866238  0.65858890     0.20100
C648        C  0.80317535  0.48932470  0.65615036     0.22700
C649        C  0.81475572  0.50934636  0.65501794    -0.39300
C650        C  0.80178127  0.52864683  0.65660766     0.21500
N651        N  0.77058211  0.54882682  0.66037724    -0.32600
C652        C  0.78818914  0.56251665  0.65858376    -0.10100
C653        C  0.80790343  0.55056056  0.65625442    -0.28900
N654        N  0.81190630  0.46877182  0.65598596    -0.45500
C655        C  0.79461260  0.45488963  0.65846716    -0.04800
C656        C  0.77460271  0.46661301  0.65994356    -0.22200
H657        H  0.74960700  0.50753122  0.66230258     0.19700
H658        H  0.83260289  0.50985428  0.65328979     0.18400
H659        H  0.82446893  0.55705757  0.65446167     0.14700
H660        H  0.75824737  0.45997349  0.66240962     0.14600
H661        H  0.75394872  0.55336318  0.66222173     0.32800
H662        H  0.82870916  0.46449011  0.65482793     0.35500
C663        C  0.13770170  0.64825849  0.73640853     0.21100
C664        C  0.12457212  0.66177044  0.74730996    -0.38800
C665        C  0.12837395  0.65944351  0.76518010     0.20100
C666        C  0.14398843  0.64473481  0.77175151     0.22700
C667        C  0.15723622  0.63132678  0.76084114    -0.39300
C668        C  0.15349021  0.63371769  0.74296155     0.21500
N669        N  0.13773668  0.64777414  0.71894044    -0.32600
C670        C  0.15382555  0.63296520  0.71436589    -0.10100
C671        C  0.16396029  0.62383052  0.72898148    -0.28900
N672        N  0.14447920  0.64583001  0.78921314    -0.45500
C673        C  0.12912447  0.66144159  0.79374948    -0.04800
C674        C  0.11878836  0.67029499  0.77911459    -0.22200
H675        H  0.11243308  0.67339632  0.74225304     0.19700
H676        H  0.16969602  0.62003356  0.76588513     0.18400
H677        H  0.17753000  0.61192446  0.72931223     0.14700
H678        H  0.10603531  0.68306777  0.77873590     0.14600
H679        H  0.12791082  0.65737489  0.71066429     0.32800
H680        H  0.15477427  0.63674620  0.79750021     0.35500
C681        C  0.20149667  0.47444958  0.66268156     0.21100
C682        C  0.21322828  0.49450634  0.66405298    -0.38800
C683        C  0.20031897  0.51396827  0.66258539     0.20100
C684        C  0.17754058  0.51337189  0.66000123     0.22700
C685        C  0.16587905  0.49343318  0.65864997    -0.39300
C686        C  0.17872088  0.47409670  0.66008710     0.21500
N687        N  0.20972077  0.45361668  0.66355610    -0.32600
C688        C  0.19193924  0.44010777  0.66150831    -0.10100
C689        C  0.17239449  0.45228323  0.65932657    -0.28900
N690        N  0.16898865  0.53393880  0.65912055    -0.45500
C691        C  0.18638226  0.54783984  0.66112428    -0.04800
C692        C  0.20626214  0.53607078  0.66331198    -0.22200
H693        H  0.23102398  0.49492975  0.66608840     0.19700
H694        H  0.14807630  0.49300827  0.65663256     0.18400
H695        H  0.15575855  0.44598114  0.65740546     0.14700
H696        H  0.22272788  0.54276777  0.66527497     0.14600
H697        H  0.22629012  0.44889492  0.66541822     0.32800
H698        H  0.15229758  0.53825995  0.65731076     0.35500
C699        C  0.13971860  0.34034889  0.76538155     0.21100
C700        C  0.15372692  0.35491624  0.75653554    -0.38800
C701        C  0.15393960  0.35264336  0.73842461     0.20100
C702        C  0.14103331  0.33716775  0.72974572     0.22700
C703        C  0.12713902  0.32244829  0.73861207    -0.39300
C704        C  0.12705609  0.32460796  0.75676830     0.21500
N705        N  0.13761108  0.33834219  0.78263651    -0.32600
C706        C  0.12378182  0.32099922  0.78508142    -0.10100
C707        C  0.11670431  0.31206862  0.76925304    -0.28900
N708        N  0.14477563  0.33791781  0.71256206    -0.45500
C709        C  0.16034068  0.35380948  0.71034692    -0.04800
C710        C  0.16645986  0.36337295  0.72616950    -0.22200
H711        H  0.16410993  0.36678728  0.76329209     0.19700
H712        H  0.11752393  0.30990269  0.73190220     0.18400
H713        H  0.10619751  0.29776802  0.76718130     0.14700
H714        H  0.17877087  0.37610139  0.72842341     0.14600
H715        H  0.14590171  0.34753360  0.79217150     0.32800
H716        H  0.13772416  0.32777835  0.70299829     0.35500
C717        C  0.85366304  0.34509129  0.76807555     0.21100
C718        C  0.85871704  0.34247931  0.75037518    -0.38800
C719        C  0.84701083  0.35640703  0.73900158     0.20100
C720        C  0.83140931  0.37176269  0.74481622     0.22700
C721        C  0.82640040  0.37443262  0.76256079    -0.39300
C722        C  0.83814774  0.36049585  0.77395653     0.21500
N723        N  0.86186195  0.33321373  0.78133798    -0.32600
C724        C  0.85154296  0.34103609  0.79582529    -0.10100
C725        C  0.83665636  0.35814156  0.79176192    -0.28900
N726        N  0.82155107  0.38191870  0.73131334    -0.45500
C727        C  0.83085080  0.37289608  0.71678980    -0.04800
C728        C  0.84695140  0.35706023  0.72109449    -0.22200
H729        H  0.87052752  0.33012441  0.74575831     0.19700
H730        H  0.81389822  0.38612204  0.76711696     0.18400
H731        H  0.82584715  0.36723622  0.80056931     0.14700
H732        H  0.85648972  0.34661154  0.71229774     0.14600
H733        H  0.87350991  0.32027965  0.78054248     0.32800
H734        H  0.80862847  0.39359393  0.73192216     0.35500
C735        C  0.96875192  0.30919828  0.84718234     0.21100
C736        C  0.98897356  0.32038157  0.84633527    -0.38800
C737        C  0.00773062  0.30691797  0.84385540     0.20100
C738        C  0.00662400  0.28399634  0.84242729     0.22700
C739        C  0.98630257  0.27273660  0.84337413    -0.39300
C740        C  0.96740657  0.28628053  0.84576845     0.21500
N741        N  0.94849091  0.31842504  0.84853174    -0.32600
C742        C  0.93406850  0.30131481  0.84787601    -0.10100
C743        C  0.94517358  0.28095929  0.84630487    -0.28900
N744        N  0.02700000  0.27519332  0.83978986    -0.45500
C745        C  0.04092932  0.29279006  0.83949895    -0.04800
C746        C  0.02952731  0.31274810  0.84201934    -0.22200
H747        H  0.98998453  0.33830843  0.84719477     0.19700
H748        H  0.98523267  0.25486232  0.84201977     0.18400
H749        H  0.93792923  0.26461478  0.84508532     0.14700
H750        H  0.03632514  0.32934711  0.84245617     0.14600
H751        H  0.94468042  0.33536985  0.84933151     0.32800
H752        H  0.03114959  0.25840513  0.83826428     0.35500
C753        C  0.14420852  0.35414731  0.58763911     0.21100
C754        C  0.12443170  0.35245928  0.57811658    -0.38800
C755        C  0.12516438  0.36068082  0.56117662     0.20100
C756        C  0.14420766  0.36964802  0.55414004     0.22700
C757        C  0.16414722  0.37092044  0.56352946    -0.39300
C758        C  0.16335223  0.36296316  0.58056873     0.21500
N759        N  0.14671417  0.35087633  0.60474979    -0.32600
C760        C  0.16747201  0.35791019  0.60863713    -0.10100
C761        C  0.17851938  0.36516487  0.59384837    -0.28900
N762        N  0.13973247  0.37908680  0.53879110    -0.45500
C763        C  0.11762803  0.37641815  0.53609136    -0.04800
C764        C  0.10809638  0.36458954  0.54971592    -0.22200
H765        H  0.10914756  0.34671611  0.58390522     0.19700
H766        H  0.17870884  0.37902787  0.55840476     0.18400
H767        H  0.19468748  0.37288609  0.59320219     0.14700
H768        H  0.09080306  0.36078216  0.55187078     0.14600
H769        H  0.13450889  0.34575464  0.61345136     0.32800
H770        H  0.15072522  0.38808268  0.53112202     0.35500
C771        C  0.11483864  0.61811690  0.55846505     0.21100
C772        C  0.10904996  0.61531325  0.57598262    -0.38800
C773        C  0.12521826  0.62169497  0.58817278     0.20100
C774        C  0.14556932  0.63014568  0.58321156     0.22700
C775        C  0.15124336  0.63315089  0.56574909    -0.39300
C776        C  0.13509212  0.62682904  0.55361027     0.21500
N777        N  0.10298746  0.61214431  0.54439707    -0.32600
C778        C  0.11578479  0.61710088  0.53046774    -0.10100
C779        C  0.13589316  0.62644171  0.53576275    -0.28900
N780        N  0.15872869  0.63327572  0.59706166    -0.45500
C781        C  0.14675734  0.62682111  0.61099823    -0.04800
C782        C  0.12564929  0.61967306  0.60602488    -0.22200
H783        H  0.09340903  0.60806755  0.57981306     0.19700
H784        H  0.16733638  0.63932241  0.56188131     0.18400
H785        H  0.14965787  0.63148992  0.52771126     0.14700
H786        H  0.11290102  0.61272306  0.61421307     0.14600
H787        H  0.08725942  0.60493612  0.54437722     0.32800
H788        H  0.17519812  0.63866090  0.59696861     0.35500
C789        C  0.09953896  0.52236070  0.50825962     0.21100
C790        C  0.09898510  0.50467854  0.52001172    -0.38800
C791        C  0.09742259  0.48335455  0.51258157     0.20100
C792        C  0.09619350  0.47990858  0.49482655     0.22700
C793        C  0.09702492  0.49756725  0.48307359    -0.39300
C794        C  0.09889266  0.51885990  0.49048973     0.21500
N795        N  0.10094383  0.54418358  0.51200568    -0.32600
C796        C  0.10152679  0.55461724  0.49649912    -0.10100
C797        C  0.10034670  0.53935678  0.48278439    -0.28900
N798        N  0.09501074  0.45808475  0.49104741    -0.45500
C799        C  0.09590065  0.44750512  0.50648912    -0.04800
C800        C  0.09732904  0.46274855  0.52022251    -0.22200
H801        H  0.09988115  0.50731126  0.53390534     0.19700
H802        H  0.09645122  0.49491189  0.46917202     0.18400
H803        H  0.10018341  0.54283352  0.46903089     0.14700
H804        H  0.09840073  0.45923063  0.53394470     0.14600
H805        H  0.10172329  0.55150245  0.52433012     0.32800
H806        H  0.09446807  0.45082817  0.47869383     0.35500
C807        C  0.84366472  0.62719541  0.55379183     0.21100
C808        C  0.82282825  0.62766871  0.56204301    -0.38800
C809        C  0.82296402  0.63409566  0.57961513     0.20100
C810        C  0.84238162  0.63958843  0.58824822     0.22700
C811        C  0.86313877  0.63906725  0.58000629    -0.39300
C812        C  0.86298741  0.63274213  0.56247297     0.21500
N813        N  0.84832783  0.61984773  0.53766748    -0.32600
C814        C  0.87078927  0.62066236  0.53604162    -0.10100
C815        C  0.88043769  0.62882106  0.55130598    -0.28900
N816        N  0.83843740  0.64339533  0.60516190    -0.45500
C817        C  0.81639705  0.64009962  0.60741939    -0.04800
C818        C  0.80610314  0.63445491  0.59175410    -0.22200
H819        H  0.80777215  0.62259996  0.55546239     0.19700
H820        H  0.87840236  0.64259429  0.58690817     0.18400
H821        H  0.89787799  0.63021858  0.55446622     0.14700
H822        H  0.78890487  0.62994194  0.58973532     0.14600
H823        H  0.83705040  0.61349744  0.52861991     0.32800
H824        H  0.85022654  0.64682628  0.61475640     0.35500
C825        C  0.97617538  0.60433006  0.49389997     0.21100
C826        C  0.99424169  0.60559587  0.48243578    -0.38800
C827        C  0.01531434  0.60691213  0.49021012     0.20100
C828        C  0.01826084  0.60653647  0.50802173     0.22700
C829        C  0.00019115  0.60550827  0.51948864    -0.39300
C830        C  0.97909441  0.60462411  0.51172061     0.21500
N831        N  0.95443081  0.60340966  0.48981461    -0.32600
C832        C  0.94342862  0.60358357  0.50516077    -0.10100
C833        C  0.95827558  0.60427373  0.51909387    -0.28900
N834        N  0.03999258  0.60738337  0.51211056    -0.45500
C835        C  0.05092425  0.60865324  0.49678318    -0.04800
C836        C  0.03607502  0.60847498  0.48285158    -0.22200
H837        H  0.99205131  0.60572149  0.46849651     0.19700
H838        H  0.00237503  0.60556812  0.53343041     0.18400
H839        H  0.95434990  0.60452352  0.53279861     0.14700
H840        H  0.03998861  0.60880274  0.46915074     0.14600
H841        H  0.94748714  0.60332882  0.47738943     0.32800
H842        H  0.04693676  0.60719351  0.52453335     0.35500
C843        C  0.85301618  0.37392354  0.55635863     0.21100
C844        C  0.83501006  0.36845647  0.56702413    -0.38800
C845        C  0.83821943  0.37175017  0.58487932     0.20100
C846        C  0.85793649  0.37971787  0.59168492     0.22700
C847        C  0.87593069  0.38540851  0.58096002    -0.39300
C848        C  0.87264057  0.38227537  0.56301847     0.21500
N849        N  0.85364397  0.37318361  0.53894493    -0.32600
C850        C  0.87371359  0.38138198  0.53430762    -0.10100
C851        C  0.88607687  0.38719509  0.54902173    -0.28900
N852        N  0.85641998  0.38201159  0.60906646    -0.45500
C853        C  0.83549913  0.37567964  0.61326712    -0.04800
C854        C  0.82369938  0.36918331  0.59851088    -0.22200
H855        H  0.81944438  0.36250364  0.56176371     0.19700
H856        H  0.89116666  0.39221816  0.58616332     0.18400
H857        H  0.90245947  0.39447356  0.54945794     0.14700
H858        H  0.80656657  0.36387824  0.59780796     0.14600
H859        H  0.84071826  0.36828432  0.53074794     0.32800
H860        H  0.86853639  0.38827827  0.61745630     0.35500
C861        C  0.01261008  0.39314376  0.49452180     0.21100
C862        C  0.99415518  0.39276120  0.48340524    -0.38800
C863        C  0.97334134  0.39310495  0.49163193     0.20100
C864        C  0.97105815  0.39413710  0.50950761     0.22700
C865        C  0.98947542  0.39431025  0.52058815    -0.39300
C866        C  0.01023040  0.39358609  0.51239738     0.21500
N867        N  0.03423249  0.39288836  0.49006290    -0.32600
C868        C  0.04552556  0.39282843  0.50526956    -0.10100
C869        C  0.03113925  0.39319654  0.51943272    -0.28900
N870        N  0.94953579  0.39390255  0.51412266    -0.45500
C871        C  0.93805639  0.39219573  0.49908530    -0.04800
C872        C  0.95230867  0.39184360  0.48477534    -0.22200
H873        H  0.99585783  0.39197572  0.46943087     0.19700
H874        H  0.98777697  0.39468918  0.53456968     0.18400
H875        H  0.03543863  0.39355438  0.53307178     0.14700
H876        H  0.94788810  0.39059594  0.47118851     0.14600
H877        H  0.04087896  0.39255525  0.47754224     0.32800
H878        H  0.94311280  0.39405654  0.52671425     0.35500
C879        C  0.89005436  0.51596397  0.51184408     0.21100
C880        C  0.89013489  0.49590833  0.52097458    -0.38800
C881        C  0.88788837  0.47663222  0.51083118     0.20100
C882        C  0.88544410  0.47735010  0.49298815     0.22700
C883        C  0.88567010  0.49741263  0.48382038    -0.39300
C884        C  0.88822210  0.51670161  0.49394960     0.21500
N885        N  0.89148125  0.53651876  0.51855765    -0.32600
C886        C  0.89080945  0.55047873  0.50486834    -0.10100
C887        C  0.88895750  0.53877755  0.48924787    -0.28900
N888        N  0.88341589  0.45677033  0.48636973    -0.45500
C889        C  0.88486856  0.44282054  0.50005974    -0.04800
C890        C  0.88771957  0.45459717  0.51555102    -0.22200
H891        H  0.89180786  0.49536848  0.53494941     0.19700
H892        H  0.88398303  0.49794943  0.46984728     0.18400
H893        H  0.88760837  0.54553693  0.47631899     0.14700
H894        H  0.88944413  0.44796795  0.52849332     0.14600
H895        H  0.89282948  0.54079777  0.53168067     0.32800
H896        H  0.88181178  0.45249351  0.47326743     0.35500
C897        C  0.96822441  0.30832141  0.16748548     0.21100
C898        C  0.98651895  0.32254981  0.16769203    -0.38800
C899        C  0.00727936  0.31221128  0.16571331     0.20100
C900        C  0.00970091  0.28943750  0.16365379     0.22700
C901        C  0.99133763  0.27517694  0.16342290    -0.39300
C902        C  0.97050542  0.28553098  0.16544197     0.21500
N903        N  0.94675044  0.31414071  0.16884209    -0.32600
C904        C  0.93522646  0.29495258  0.16763340    -0.10100
C905        C  0.94941747  0.27669953  0.16555207    -0.28900
N906        N  0.03127277  0.28383895  0.16189849    -0.45500
C907        C  0.04252500  0.30323817  0.16284529    -0.04800
C908        C  0.02814630  0.32125577  0.16522612    -0.22200
H909        H  0.98471115  0.34037175  0.16920265     0.19700
H910        H  0.99312736  0.25738277  0.16172766     0.18400
H911        H  0.94490017  0.25942027  0.16403187     0.14700
H912        H  0.03240700  0.33865128  0.16635389     0.14600
H913        H  0.94030817  0.33022421  0.17027408     0.32800
H914        H  0.03790428  0.26789644  0.16008355     0.35500
C915        C  0.14930282  0.64307862  0.41288102     0.21100
C916        C  0.12954819  0.64544326  0.42240094    -0.38800
C917        C  0.13039495  0.63806486  0.43960170     0.20100
C918        C  0.14949400  0.62917809  0.44684037     0.22700
C919        C  0.16935713  0.62707717  0.43739691    -0.39300
C920        C  0.16846332  0.63426627  0.42014000     0.21500
N921        N  0.15203193  0.64639645  0.39578986    -0.32600
C922        C  0.17300148  0.63945463  0.39212593    -0.10100
C923        C  0.18385343  0.63201991  0.40700629    -0.28900
N924        N  0.14520769  0.62089723  0.46261383    -0.45500
C925        C  0.12314143  0.62416359  0.46539397    -0.04800
C926        C  0.11347634  0.63528049  0.45137438    -0.22200
H927        H  0.11428123  0.65136027  0.41654141     0.19700
H928        H  0.18403082  0.61919977  0.44276194     0.18400
H929        H  0.20028464  0.62465295  0.40787306     0.14700
H930        H  0.09616925  0.63931690  0.44923605     0.14600
H931        H  0.13999765  0.65187578  0.38700305     0.32800
H932        H  0.15627839  0.61218570  0.47053746     0.35500
C933        C  0.12973314  0.33948045  0.23784338     0.21100
C934        C  0.12511349  0.33661857  0.25555768    -0.38800
C935        C  0.13874925  0.34839053  0.26715574     0.20100
C936        C  0.15570325  0.36194681  0.26150012     0.22700
C937        C  0.16021233  0.36494587  0.24377472    -0.39300
C938        C  0.14654207  0.35320229  0.23216697     0.21500
N939        N  0.11975945  0.32942414  0.22432591    -0.32600
C940        C  0.13019779  0.33677835  0.20989569    -0.10100
C941        C  0.14694098  0.35177377  0.21424466    -0.28900
N942        N  0.16657596  0.37090252  0.27507209    -0.45500
C943        C  0.15644252  0.36311717  0.28949589    -0.04800
C944        C  0.13898443  0.34899878  0.28508737    -0.22200
H945        H  0.11205883  0.32577052  0.25998451     0.19700
H946        H  0.17357114  0.37542621  0.23935740     0.18400
H947        H  0.15829016  0.35995873  0.20553072     0.14700
H948        H  0.12806776  0.34026224  0.29380711     0.14600
H949        H  0.10685751  0.31793383  0.22489566     0.32800
H950        H  0.18009556  0.38166690  0.27455828     0.35500
C951        C  0.18498703  0.52741489  0.33735247     0.21100
C952        C  0.17030046  0.50954377  0.33584920    -0.38800
C953        C  0.17979084  0.48840920  0.33781517     0.20100
C954        C  0.20222390  0.48525075  0.34106468     0.22700
C955        C  0.21697390  0.50319937  0.34256471    -0.39300
C956        C  0.20746026  0.52443152  0.34054143     0.21500
N957        N  0.17990071  0.54907209  0.33618537    -0.32600
C958        C  0.19921440  0.56010533  0.33858060    -0.10100
C959        C  0.21686222  0.54532579  0.34132345    -0.28900
N960        N  0.20698339  0.46345697  0.34251930    -0.45500
C961        C  0.18740937  0.45277473  0.34018791    -0.04800
C962        C  0.17010227  0.46778676  0.33721055    -0.22200
H963        H  0.15272958  0.51193643  0.33339116     0.19700
H964        H  0.23451311  0.50081352  0.34514611     0.18400
H965        H  0.23409342  0.54932660  0.34378645     0.14700
H966        H  0.15274758  0.46409484  0.33496946     0.14600
H967        H  0.16416192  0.55595704  0.33399574     0.32800
H968        H  0.22252435  0.45630260  0.34500101     0.35500
C969        C  0.14299763  0.37308525  0.41966835     0.21100
C970        C  0.14847690  0.37166826  0.43726564    -0.38800
C971        C  0.13170348  0.37792663  0.44889755     0.20100
C972        C  0.11096740  0.38519161  0.44353093     0.22700
C973        C  0.10537539  0.38649436  0.42580381    -0.39300
C974        C  0.12225862  0.38012098  0.41405641     0.21500
N975        N  0.15673383  0.36963090  0.40621848    -0.32600
C976        C  0.14489907  0.37459140  0.39180529    -0.10100
C977        C  0.12314970  0.38093321  0.39610214    -0.28900
N978        N  0.09831451  0.39083801  0.45734482    -0.45500
C979        C  0.11115294  0.38690214  0.47152512    -0.04800
C980        C  0.13206830  0.37887983  0.46667842    -0.22200
H981        H  0.16482994  0.36651582  0.44159095     0.19700
H982        H  0.08931989  0.39251462  0.42148586     0.18400
H983        H  0.11027643  0.38674963  0.38740478     0.14700
H984        H  0.14592628  0.37465519  0.47500571     0.14600
H985        H  0.17353918  0.36519663  0.40687288     0.32800
H986        H  0.08197584  0.39681550  0.45710810     0.35500
C987        C  0.13429230  0.67399241  0.24291488     0.21100
C988        C  0.13301640  0.67741995  0.26093447    -0.38800
C989        C  0.14750218  0.66441973  0.27095519     0.20100
C990        C  0.16222080  0.64930597  0.26353465     0.22700
C991        C  0.16344216  0.64582646  0.24552625    -0.39300
C992        C  0.14887363  0.65872615  0.23551946     0.21500
N993        N  0.12286620  0.68480627  0.23058786    -0.32600
C994        C  0.13021021  0.67639225  0.21524078    -0.10100
C995        C  0.14638045  0.66000108  0.21776368    -0.28900
N996        N  0.17481035  0.63965600  0.27576210    -0.45500
C997        C  0.16805580  0.64859733  0.29109404    -0.04800
C998        C  0.15094228  0.66404508  0.28866300    -0.22200
H999        H  0.12178452  0.68952329  0.26670278     0.19700
H1000       H  0.17511471  0.63417556  0.23972521     0.18400
H1001       H  0.15554266  0.65079396  0.20794348     0.14700
H1002       H  0.14260274  0.67405375  0.29845570     0.14600
H1003       H  0.11115174  0.69750014  0.23248314     0.32800
H1004       H  0.18745926  0.62791638  0.27378019     0.35500
C1005       C  0.96489401  0.68465621  0.15882078     0.21100
C1006       C  0.98532678  0.67327322  0.15931856    -0.38800
C1007       C  0.00426822  0.68662036  0.16073506     0.20100
C1008       C  0.00303109  0.70958395  0.16151647     0.22700
C1009       C  0.98254233  0.72098767  0.16100275    -0.39300
C1010       C  0.96353805  0.70761240  0.15966919     0.21500
N1011       N  0.94451827  0.67571779  0.15794185    -0.32600
C1012       C  0.92999978  0.69305552  0.15832714    -0.10100
C1013       C  0.94122680  0.71325106  0.15934696    -0.28900
N1014       N  0.02349286  0.71837492  0.16299320    -0.45500
C1015       C  0.03780286  0.70083967  0.16321122    -0.04800
C1016       C  0.02640334  0.68079489  0.16179933    -0.22200
H1017       H  0.98638880  0.65531745  0.15880928     0.19700
H1018       H  0.98146141  0.73892743  0.16176300     0.18400
H1019       H  0.93403184  0.72977239  0.16002878     0.14700
H1020       H  0.03340137  0.66417088  0.16159196     0.14600
H1021       H  0.94070369  0.65882125  0.15739848     0.32800
H1022       H  0.02747086  0.73521129  0.16384599     0.35500
C1023       C  0.83892493  0.64367528  0.26788373     0.21100
C1024       C  0.85068997  0.65799051  0.25701017    -0.38800
C1025       C  0.84745962  0.65482816  0.23912024     0.20100
C1026       C  0.83371338  0.63851885  0.23243563     0.22700
C1027       C  0.82186880  0.62416829  0.24334532    -0.39300
C1028       C  0.82496273  0.62747044  0.26130657     0.21500
N1029       N  0.83843592  0.64402633  0.28535120    -0.32600
C1030       C  0.82389795  0.62806112  0.29000660    -0.10100
C1031       C  0.81520318  0.61732418  0.27536151    -0.28900
N1032       N  0.83291428  0.63960625  0.21494681    -0.45500
C1033       C  0.84607043  0.65692101  0.21055964    -0.04800
C1034       C  0.85545709  0.66668119  0.22530235    -0.22200
H1035       H  0.86121386  0.67100864  0.26211797     0.19700
H1036       H  0.81068656  0.61170605  0.23825145     0.18400
H1037       H  0.80297461  0.60422828  0.27504635     0.14700
H1038       H  0.86629847  0.68094060  0.22585330     0.14600
H1039       H  0.84697282  0.65488897  0.29358426     0.32800
H1040       H  0.82351521  0.62966578  0.20658443     0.35500
C1041       C  0.85973097  0.61239876  0.41397756     0.21100
C1042       C  0.87696111  0.60396582  0.42446168    -0.38800
C1043       C  0.87533458  0.60895816  0.44230184     0.20100
C1044       C  0.85790956  0.62137989  0.44907995     0.22700
C1045       C  0.84066146  0.62962409  0.43866959    -0.39300
C1046       C  0.84226606  0.62465132  0.42092305     0.21500
N1047       N  0.85692545  0.60947104  0.39675285    -0.32600
C1048       C  0.83746749  0.61984901  0.39281866    -0.10100
C1049       C  0.82789072  0.62947332  0.40757003    -0.28900
N1050       N  0.85962639  0.62319093  0.46639351    -0.45500
C1051       C  0.87822118  0.61168789  0.47090160    -0.04800
C1052       C  0.88853971  0.60264743  0.45612901    -0.22200
H1053       H  0.89042585  0.59398466  0.41917326     0.19700
H1054       H  0.82679523  0.63895356  0.44404904     0.18400
H1055       H  0.81218110  0.63830141  0.40847413     0.14700
H1056       H  0.90334026  0.59235694  0.45551857     0.14600
H1057       H  0.86719163  0.60038988  0.38832128     0.32800
H1058       H  0.84821660  0.63115643  0.47458339     0.35500
C1059       C  0.83359374  0.33818754  0.27410231     0.21100
C1060       C  0.84862980  0.32503733  0.26454925    -0.38800
C1061       C  0.84734424  0.32707218  0.24648021     0.20100
C1062       C  0.83240220  0.34132672  0.23851355     0.22700
C1063       C  0.81734056  0.35449250  0.24807632    -0.39300
C1064       C  0.81846112  0.35227039  0.26616747     0.21500
N1065       N  0.83057568  0.33818638  0.29136408    -0.32600
C1066       C  0.81325160  0.35216873  0.29445548    -0.10100
C1067       C  0.80531328  0.36139948  0.27907756    -0.28900
N1068       N  0.83358540  0.33917292  0.22116689    -0.45500
C1069       C  0.84913412  0.32320189  0.21812501    -0.04800
C1070       C  0.85821589  0.31537817  0.23357028    -0.22200
H1071       H  0.85997338  0.31350257  0.27071295     0.19700
H1072       H  0.80516701  0.36511460  0.24187219     0.18400
H1073       H  0.79139819  0.37271684  0.27751997     0.14700
H1074       H  0.87042226  0.30224122  0.23514792     0.14600
H1075       H  0.83929130  0.32870241  0.30043103     0.32800
H1076       H  0.82370252  0.34728108  0.21200741     0.35500
C1077       C  0.77906212  0.51067283  0.34539835     0.21100
C1078       C  0.76457703  0.49243766  0.34526224    -0.38800
C1079       C  0.77483558  0.47137546  0.34559398     0.20100
C1080       C  0.79772590  0.46882255  0.34603821     0.22700
C1081       C  0.81214801  0.48695939  0.34603773    -0.39300
C1082       C  0.80193133  0.50789681  0.34567212     0.21500
N1083       N  0.77363379  0.53241416  0.34520706    -0.32600
C1084       C  0.79325115  0.54337519  0.34522622    -0.10100
C1085       C  0.81121496  0.52865339  0.34549405    -0.28900
N1086       N  0.80344286  0.44727454  0.34636441    -0.45500
C1087       C  0.78412679  0.43587400  0.34607009    -0.04800
C1088       C  0.76584356  0.45029791  0.34558436    -0.22200
H1089       H  0.74669184  0.49449062  0.34495812     0.19700
H1090       H  0.83003945  0.48490875  0.34630097     0.18400
H1091       H  0.82873508  0.53263479  0.34554267     0.14700
H1092       H  0.74842221  0.44596091  0.34523730     0.14600
H1093       H  0.75766642  0.53934255  0.34489248     0.32800
H1094       H  0.81956491  0.44070445  0.34667709     0.35500
C1095       C  0.84027597  0.35384975  0.41629440     0.21100
C1096       C  0.86039360  0.35233022  0.42543099    -0.38800
C1097       C  0.85947876  0.35867771  0.44298300     0.20100
C1098       C  0.84003147  0.36590241  0.45085353     0.22700
C1099       C  0.81989033  0.36723798  0.44177413    -0.39300
C1100       C  0.82080857  0.36098659  0.42423150     0.21500
N1101       N  0.83718335  0.35098895  0.39913379    -0.32600
C1102       C  0.81562931  0.35649250  0.39618743    -0.10100
C1103       C  0.80486103  0.36260338  0.41153019    -0.28900
N1104       N  0.84410101  0.37362338  0.46692788    -0.45500
C1105       C  0.86636164  0.37172382  0.46928874    -0.04800
C1106       C  0.87642674  0.36197064  0.45467727    -0.22200
H1107       H  0.87584805  0.34771742  0.41912091     0.19700
H1108       H  0.80487270  0.37380898  0.44768743     0.18400
H1109       H  0.78796571  0.36864005  0.41302280     0.14700
H1110       H  0.89390522  0.35939462  0.45207951     0.14600
H1111       H  0.84920958  0.34663699  0.38991115     0.32800
H1112       H  0.83270146  0.38132418  0.47530089     0.35500
C1113       C  0.10757960  0.61718639  0.94749753     0.21100
C1114       C  0.10489385  0.61281862  0.92964632    -0.38800
C1115       C  0.11294549  0.62915518  0.91836054     0.20100
C1116       C  0.12272237  0.64846126  0.92443377     0.22700
C1117       C  0.12561605  0.65271112  0.94224544    -0.39300
C1118       C  0.11773121  0.63630688  0.95348742     0.21500
N1119       N  0.10031714  0.60490097  0.96086592    -0.32600
C1120       C  0.10591427  0.61622974  0.97553970    -0.10100
C1121       C  0.11695811  0.63586699  0.97135606    -0.28900
N1122       N  0.12719110  0.66221367  0.91124055    -0.45500
C1123       C  0.12031933  0.65162338  0.89660192    -0.04800
C1124       C  0.11156327  0.63082365  0.90049996    -0.22200
H1125       H  0.09659121  0.59807588  0.92490278     0.19700
H1126       H  0.13289276  0.66797990  0.94702345     0.18400
H1127       H  0.12287991  0.64864549  0.98012825     0.14700
H1128       H  0.10387841  0.61917189  0.89160695     0.14600
H1129       H  0.09182014  0.58987818  0.95996468     0.32800
H1130       H  0.13366965  0.67823251  0.91220354     0.35500
C1131       C  0.12170021  0.64833386  0.09507074     0.21100
C1132       C  0.12328184  0.62808276  0.08601914    -0.38800
C1133       C  0.11856723  0.62900759  0.06822325     0.20100
C1134       C  0.11262227  0.64855237  0.06007476     0.22700
C1135       C  0.11108527  0.66882748  0.06911155    -0.39300
C1136       C  0.11588003  0.66793128  0.08689035     0.21500
N1137       N  0.12370780  0.65158389  0.11226469    -0.32600
C1138       C  0.11901357  0.67337777  0.11500901    -0.10100
C1139       C  0.11422282  0.68415586  0.09950645    -0.28900
N1140       N  0.10676195  0.64457786  0.04353147    -0.45500
C1141       C  0.10877799  0.62230670  0.04109003    -0.04800
C1142       C  0.11643393  0.61210827  0.05623881    -0.22200
H1143       H  0.12705962  0.61260715  0.09247442     0.19700
H1144       H  0.10569676  0.68400455  0.06290287     0.18400
H1145       H  0.10912087  0.70128680  0.09781757     0.14700
H1146       H  0.11843890  0.59459531  0.05882688     0.14600
H1147       H  0.12710285  0.63955962  0.12161164     0.32800
H1148       H  0.10037303  0.65609581  0.03474114     0.35500
C1149       C  0.11903697  0.36399074  0.93582795     0.21100
C1150       C  0.12585194  0.36612307  0.91848742    -0.38800
C1151       C  0.12371197  0.34704653  0.90803066     0.20100
C1152       C  0.11547775  0.32732124  0.91440538     0.22700
C1153       C  0.10872725  0.32516273  0.93174721    -0.39300
C1154       C  0.11077693  0.34428130  0.94216852     0.21500
N1155       N  0.11743337  0.38025381  0.94784778    -0.32600
C1156       C  0.10780236  0.37096521  0.96196271    -0.10100
C1157       C  0.10365933  0.34844122  0.95889080    -0.28900
N1158       N  0.11349883  0.31217294  0.90159990    -0.45500
C1159       C  0.12041527  0.32231775  0.88694091    -0.04800
C1160       C  0.12706021  0.34405892  0.89043769    -0.22200
H1161       H  0.13155575  0.38175070  0.91334214     0.19700
H1162       H  0.10153133  0.30999427  0.93657521     0.18400
H1163       H  0.09523423  0.33703967  0.96739993     0.14700
H1164       H  0.13254991  0.35632953  0.88123021     0.14600
H1165       H  0.12143342  0.39687675  0.94592801     0.32800
H1166       H  0.10698356  0.29620044  0.90264212     0.35500
C1167       C  0.10570837  0.37598102  0.05547571     0.21100
C1168       C  0.10509244  0.38150999  0.07326645    -0.38800
C1169       C  0.11000817  0.36409465  0.08475048     0.20100
C1170       C  0.11504059  0.34284415  0.07888089     0.22700
C1171       C  0.11584270  0.33738921  0.06114980    -0.39300
C1172       C  0.11104834  0.35477300  0.04971989     0.21500
N1173       N  0.10087246  0.38922338  0.04196794    -0.32600
C1174       C  0.10326216  0.37637095  0.02749518    -0.10100
C1175       C  0.10970893  0.35478730  0.03187617    -0.28900
N1176       N  0.11803035  0.32900013  0.09226094    -0.45500
C1177       C  0.11499448  0.34140981  0.10684693    -0.04800
C1178       C  0.11004494  0.36347021  0.10271223    -0.22200
H1179       H  0.10071322  0.39802868  0.07783129     0.19700
H1180       H  0.11956600  0.32070961  0.05659019     0.18400
H1181       H  0.11239057  0.34075600  0.02323165     0.14700
H1182       H  0.10626218  0.37699599  0.11160358     0.14600
H1183       H  0.09617902  0.40594725  0.04261872     0.32800
H1184       H  0.12151218  0.31198613  0.09150870     0.35500
C1185       C  0.09642654  0.51823395  0.99569586     0.21100
C1186       C  0.09591897  0.50058604  0.98369282    -0.38800
C1187       C  0.09840068  0.47923991  0.99064500     0.20100
C1188       C  0.10090074  0.47562903  0.00825513     0.22700
C1189       C  0.10176748  0.49331989  0.02026249    -0.39300
C1190       C  0.09950912  0.51471788  0.01325613     0.21500
N1191       N  0.09402016  0.54004045  0.99236936    -0.32600
C1192       C  0.09584481  0.55060487  0.00789821    -0.10100
C1193       C  0.09928561  0.53529194  0.02123233    -0.28900
N1194       N  0.10147060  0.45369828  0.01160685    -0.45500
C1195       C  0.09963204  0.44335263  0.99596707    -0.04800
C1196       C  0.09783779  0.45874454  0.98260793    -0.22200
H1197       H  0.09348018  0.50325677  0.96995228     0.19700
H1198       H  0.10370681  0.49062582  0.03404993     0.18400
H1199       H  0.10106424  0.53867447  0.03497500     0.14700
H1200       H  0.09540595  0.45535711  0.96892474     0.14600
H1201       H  0.09161895  0.54726473  0.98023677     0.32800
H1202       H  0.10270160  0.44623197  0.02375601     0.35500
C1203       C  0.87012307  0.37549209  0.94986774     0.21100
C1204       C  0.86840152  0.38094048  0.93222681    -0.38800
C1205       C  0.86387104  0.36316668  0.92086560     0.20100
C1206       C  0.86155487  0.34159665  0.92664933     0.22700
C1207       C  0.86312417  0.33617696  0.94427632    -0.39300
C1208       C  0.86732692  0.35398214  0.95563143     0.21500
N1209       N  0.87444423  0.38930330  0.96324596    -0.32600
C1210       C  0.87404985  0.37653599  0.97764787    -0.10100
C1211       C  0.86967895  0.35440092  0.97339456    -0.28900
N1212       N  0.85860779  0.32753278  0.91323543    -0.45500
C1213       C  0.85895553  0.34019772  0.89878077    -0.04800
C1214       C  0.86201089  0.36256002  0.90300922    -0.22200
H1215       H  0.87061804  0.39773464  0.92766951     0.19700
H1216       H  0.86135060  0.31931056  0.94880348     0.18400
H1217       H  0.86864195  0.34043443  0.98209688     0.14700
H1218       H  0.86378837  0.37630621  0.89417300     0.14600
H1219       H  0.87713818  0.40639847  0.96262617     0.32800
H1220       H  0.85715052  0.31027080  0.91383479     0.35500
C1221       C  0.85944246  0.33059230  0.08959840     0.21100
C1222       C  0.86505030  0.32803454  0.07203089    -0.38800
C1223       C  0.86397970  0.34741285  0.06210525     0.20100
C1224       C  0.85766570  0.36775543  0.06909171     0.22700
C1225       C  0.85201528  0.37030006  0.08667055    -0.39300
C1226       C  0.85318500  0.35094596  0.09663532     0.21500
N1227       N  0.86099529  0.31516239  0.10201647    -0.32600
C1228       C  0.85582860  0.32579220  0.11707277    -0.10100
C1229       C  0.85067829  0.34808929  0.11424717    -0.28900
N1230       N  0.85994165  0.38395559  0.05735352    -0.45500
C1231       C  0.86798006  0.37390202  0.04278340    -0.04800
C1232       C  0.87058364  0.35107460  0.04530026    -0.22200
H1233       H  0.87077183  0.31232274  0.06666450     0.19700
H1234       H  0.84790546  0.38633836  0.09232388     0.18400
H1235       H  0.84675709  0.36072094  0.12387629     0.14700
H1236       H  0.87770993  0.33903619  0.03634305     0.14600
H1237       H  0.86618034  0.29865897  0.10045276     0.32800
H1238       H  0.85756857  0.40090853  0.05968379     0.35500
C1239       C  0.96664375  0.40023856  0.99669082     0.21100
C1240       C  0.98376900  0.40048349  0.98434417    -0.38800
C1241       C  0.00546302  0.39991873  0.99103657     0.20100
C1242       C  0.00980869  0.39950504  0.00867410     0.22700
C1243       C  0.99267841  0.39912054  0.02101227    -0.39300
C1244       C  0.97098962  0.39935329  0.01431098     0.21500
N1245       N  0.94464477  0.39961631  0.99365599    -0.32600
C1246       C  0.93493248  0.39796538  0.00945129    -0.10100
C1247       C  0.95085059  0.39785691  0.02264769    -0.28900
N1248       N  0.03181430  0.39832117  0.01166510    -0.45500
C1249       C  0.04152626  0.39757224  0.99580910    -0.04800
C1250       C  0.02561362  0.39863062  0.98263167    -0.22200
H1251       H  0.98045237  0.40053892  0.97053926     0.19700
H1252       H  0.99599048  0.39815946  0.03479171     0.18400
H1253       H  0.94810821  0.39656748  0.03647736     0.14700
H1254       H  0.02838854  0.39814269  0.96875890     0.14600
H1255       H  0.93682062  0.39946488  0.98155578     0.32800
H1256       H  0.03966971  0.39717883  0.02371702     0.35500
C1257       C  0.85550662  0.63046963  0.93593333     0.21100
C1258       C  0.85007384  0.62826312  0.91825657    -0.38800
C1259       C  0.85177491  0.64765002  0.90834194     0.20100
C1260       C  0.85828514  0.66773368  0.91552453     0.22700
C1261       C  0.86353699  0.66998404  0.93320409    -0.39300
C1262       C  0.86196702  0.65057468  0.94307442     0.21500
N1263       N  0.85767817  0.61405951  0.94757881    -0.32600
C1264       C  0.86588644  0.62370647  0.96223632    -0.10100
C1265       C  0.86845444  0.64654586  0.95990325    -0.28900
N1266       N  0.86035332  0.68320339  0.90316471    -0.45500
C1267       C  0.85519157  0.67292531  0.88797295    -0.04800
C1268       C  0.84960215  0.65076035  0.89068582    -0.22200
H1269       H  0.84584143  0.61239073  0.91248187     0.19700
H1270       H  0.86945691  0.68546278  0.93869437     0.18400
H1271       H  0.87572729  0.65829758  0.96893269     0.14700
H1272       H  0.84548207  0.63836475  0.88096948     0.14600
H1273       H  0.85520549  0.59719791  0.94508489     0.32800
H1274       H  0.86570974  0.69954685  0.90487955     0.35500
C1275       C  0.85871750  0.63812024  0.04938241     0.21100
C1276       C  0.85099948  0.65576621  0.05989593    -0.38800
C1277       C  0.85261790  0.65253114  0.07788697     0.20100
C1278       C  0.86110804  0.63312844  0.08486844     0.22700
C1279       C  0.86902325  0.61559178  0.07434314    -0.39300
C1280       C  0.86753672  0.61888461  0.05635266     0.21500
N1281       N  0.85973988  0.63742495  0.03194996    -0.32600
C1282       C  0.86951339  0.61767639  0.02769834    -0.10100
C1283       C  0.87452364  0.60564223  0.04264924    -0.28900
N1284       N  0.86154470  0.63443007  0.10231045    -0.45500
C1285       C  0.85355079  0.65491201  0.10648608    -0.04800
C1286       C  0.84779180  0.66669126  0.09158695    -0.22200
H1287       H  0.84460748  0.67105973  0.05446551     0.19700
H1288       H  0.87618411  0.60063503  0.07976724     0.18400
H1289       H  0.88247944  0.58951033  0.04348539     0.14700
H1290       H  0.84161736  0.68359863  0.09086615     0.14600
H1291       H  0.85475072  0.65004064  0.02355980     0.32800
H1292       H  0.86780805  0.62250439  0.11081767     0.35500
C1293       C  0.00850446  0.59958875  0.99520144     0.21100
C1294       C  0.99090186  0.59677111  0.98342434    -0.38800
C1295       C  0.96940627  0.59844456  0.99048805     0.20100
C1296       C  0.96565359  0.60223334  0.00799447     0.22700
C1297       C  0.98324706  0.60529468  0.01973224    -0.39300
C1298       C  0.00472482  0.60395794  0.01261121     0.21500
N1299       N  0.03047767  0.59883296  0.99177972    -0.32600
C1300       C  0.04078922  0.60296524  0.00712133    -0.10100
C1301       C  0.02517677  0.60631276  0.02036636    -0.28900
N1302       N  0.94369815  0.60341289  0.01137309    -0.45500
C1303       C  0.93344027  0.60087875  0.99582344    -0.04800
C1304       C  0.94892283  0.59764657  0.98253098    -0.22200
H1305       H  0.99371773  0.59377177  0.96972991     0.19700
H1306       H  0.98043252  0.60868376  0.03337591     0.18400
H1307       H  0.02829334  0.60957145  0.03397632     0.14700
H1308       H  0.94560685  0.59537118  0.96882865     0.14600
H1309       H  0.03793139  0.59588813  0.97973340     0.32800
H1310       H  0.93617779  0.60661814  0.02336205     0.35500
C1311       C  0.88031996  0.51955067  0.00762525     0.21100
C1312       C  0.88247058  0.50239790  0.01971732    -0.38800
C1313       C  0.87985077  0.48079654  0.01312099     0.20100
C1314       C  0.87592809  0.47649395  0.99571441     0.22700
C1315       C  0.87365126  0.49369113  0.98360362    -0.39300
C1316       C  0.87581748  0.51537825  0.99029753     0.21500
N1317       N  0.88189731  0.54148916  0.01072271    -0.32600
C1318       C  0.87815266  0.55151903  0.99530304    -0.10100
C1319       C  0.87427480  0.53570679  0.98223923    -0.28900
N1320       N  0.87477970  0.45446023  0.99271395    -0.45500
C1321       C  0.87755390  0.44479412  0.00839937    -0.04800
C1322       C  0.88072707  0.46066944  0.02142228    -0.22200
H1323       H  0.88579045  0.50564623  0.03330561     0.19700
H1324       H  0.87036456  0.49044235  0.97001028     0.18400
H1325       H  0.87114972  0.53861306  0.96861716     0.14700
H1326       H  0.88390829  0.45780026  0.03504686     0.14600
H1327       H  0.88504499  0.54909077  0.02269441     0.32800
H1328       H  0.87228138  0.44648220  0.98078664     0.35500
C1329       C  0.77373656  0.19587203  0.84331120     0.21100
C1330       C  0.79618105  0.20130196  0.84082639    -0.38800
C1331       C  0.80145196  0.22381203  0.84332555     0.20100
C1332       C  0.78554797  0.23958768  0.84786842     0.22700
C1333       C  0.76323431  0.23418560  0.85032544    -0.39300
C1334       C  0.75801922  0.21180435  0.84789328     0.21500
N1335       N  0.76430617  0.17571816  0.84193147    -0.32600
C1336       C  0.74252523  0.17908665  0.84575071    -0.10100
C1337       C  0.73801902  0.20132626  0.84945840    -0.28900
N1338       N  0.79459705  0.25976860  0.84943402    -0.45500
C1339       C  0.81645280  0.25691612  0.84589429    -0.04800
C1340       C  0.82145241  0.23472652  0.84204414    -0.22200
H1341       H  0.80858928  0.18895925  0.83728375     0.19700
H1342       H  0.75083206  0.24651612  0.85391785     0.18400
H1343       H  0.72218183  0.20881619  0.85288810     0.14700
H1344       H  0.83748421  0.22761008  0.83870737     0.14600
H1345       H  0.77213429  0.16070524  0.83866353     0.32800
H1346       H  0.78639964  0.27458631  0.85271316     0.35500
C1347       C  0.76661129  0.81787259  0.83749847     0.21100
C1348       C  0.78962944  0.81390906  0.83598552    -0.38800
C1349       C  0.79655637  0.79170587  0.83809587     0.20100
C1350       C  0.78163272  0.77490419  0.84151329     0.22700
C1351       C  0.75873183  0.77884849  0.84299612    -0.39300
C1352       C  0.75184842  0.80090274  0.84082090     0.21500
N1353       N  0.75569388  0.83739217  0.83604041    -0.32600
C1354       C  0.73389203  0.83264682  0.83844972    -0.10100
C1355       C  0.73087707  0.81008330  0.84140044    -0.28900
N1356       N  0.79211924  0.75522767  0.84260973    -0.45500
C1357       C  0.81392646  0.75930780  0.83977325    -0.04800
C1358       C  0.81742838  0.78193181  0.83697340    -0.22200
H1359       H  0.80123735  0.82707238  0.83325144     0.19700
H1360       H  0.74708659  0.76564784  0.84553609     0.18400
H1361       H  0.71540428  0.80156927  0.84378420     0.14700
H1362       H  0.83300590  0.79002330  0.83416720     0.14600
H1363       H  0.76260532  0.85292438  0.83360923     0.32800
H1364       H  0.78479045  0.73983130  0.84483034     0.35500
C1365       C  0.69881043  0.98460412  0.83843242     0.21100
C1366       C  0.71278036  0.00319717  0.83863785    -0.38800
C1367       C  0.70195948  0.02389800  0.83993927     0.20100
C1368       C  0.67903101  0.02578863  0.84093582     0.22700
C1369       C  0.66511389  0.00728961  0.84060600    -0.39300
C1370       C  0.67589082  0.98670348  0.83929759     0.21500
N1371       N  0.70485997  0.96306518  0.83774828    -0.32600
C1372       C  0.68558351  0.95157132  0.83812167    -0.10100
C1373       C  0.66720481  0.96571118  0.83900873    -0.28900
N1374       N  0.67275408  0.04711432  0.84230069    -0.45500
C1375       C  0.69175515  0.05899707  0.84214664    -0.04800
C1376       C  0.71039234  0.04515457  0.84068830    -0.22200
H1377       H  0.73070029  0.00165443  0.83800666     0.19700
H1378       H  0.64720179  0.00881537  0.84143971     0.18400
H1379       H  0.64983943  0.96119968  0.83965973     0.14700
H1380       H  0.72767592  0.04997985  0.84024733     0.14600
H1381       H  0.72101052  0.95659904  0.83717865     0.32800
H1382       H  0.65649191  0.05322552  0.84325959     0.35500
C1383       C  0.68741019  0.74272532  0.65559293     0.21100
C1384       C  0.71007279  0.73782496  0.65734547    -0.38800
C1385       C  0.71582187  0.71528819  0.65636955     0.20100
C1386       C  0.70027448  0.69874091  0.65378255     0.22700
C1387       C  0.67748136  0.70366412  0.65202605    -0.39300
C1388       C  0.67167235  0.72633437  0.65307575     0.21500
N1389       N  0.67780559  0.76289708  0.65631885    -0.32600
C1390       C  0.65572952  0.75946863  0.65432998    -0.10100
C1391       C  0.65119744  0.73686314  0.65224940    -0.28900
N1392       N  0.71020999  0.67858572  0.65355080    -0.45500
C1393       C  0.73216423  0.68254327  0.65607688    -0.04800
C1394       C  0.73623896  0.70518824  0.65784092    -0.22200
H1395       H  0.72233961  0.75063790  0.65944557     0.19700
H1396       H  0.66519215  0.69082861  0.65013020     0.18400
H1397       H  0.63512660  0.72919651  0.65050550     0.14700
H1398       H  0.75206666  0.71318959  0.66001427     0.14600
H1399       H  0.68577967  0.77808320  0.65823427     0.32800
H1400       H  0.70257571  0.66318147  0.65190312     0.35500
C1401       C  0.62444688  0.84134042  0.73564564     0.21100
C1402       C  0.62094766  0.83788545  0.75343991    -0.38800
C1403       C  0.63444106  0.85028387  0.76472956     0.20100
C1404       C  0.65030584  0.86486408  0.75871307     0.22700
C1405       C  0.65371050  0.86841582  0.74092896    -0.39300
C1406       C  0.64010672  0.85614919  0.72964586     0.21500
N1407       N  0.61432663  0.83103660  0.72230903    -0.32600
C1408       C  0.62352418  0.83939660  0.70770921    -0.10100
C1409       C  0.63959906  0.85519980  0.71174869    -0.28900
N1410       N  0.66154973  0.87398755  0.77200887    -0.45500
C1411       C  0.65276141  0.86523626  0.78661397    -0.04800
C1412       C  0.63572503  0.85044776  0.78262003    -0.22200
H1413       H  0.60882306  0.82618735  0.75813860     0.19700
H1414       H  0.66623063  0.87968792  0.73622364     0.18400
H1415       H  0.64997455  0.86423842  0.70281971     0.14700
H1416       H  0.62600556  0.84073325  0.79156063     0.14600
H1417       H  0.60216630  0.81878731  0.72308835     0.32800
H1418       H  0.67461515  0.88526514  0.77119144     0.35500
C1419       C  0.27812488  0.72413151  0.66012036     0.21100
C1420       C  0.25516768  0.72069830  0.66041941    -0.38800
C1421       C  0.24850748  0.69853456  0.66019173     0.20100
C1422       C  0.26355055  0.68101537  0.65972708     0.22700
C1423       C  0.28667293  0.68446339  0.65953782    -0.39300
C1424       C  0.29339194  0.70679691  0.65975409     0.21500
N1425       N  0.28840132  0.74374325  0.66011950    -0.32600
C1426       C  0.31043838  0.73912867  0.65980839    -0.10100
C1427       C  0.31434605  0.71619722  0.65960994    -0.28900
N1428       N  0.25277567  0.66151576  0.65958172    -0.45500
C1429       C  0.23081671  0.66683051  0.66000125    -0.04800
C1430       C  0.22751904  0.68973420  0.66037717    -0.22200
H1431       H  0.24333644  0.73433950  0.66075073     0.19700
H1432       H  0.29849756  0.67082114  0.65921540     0.18400
H1433       H  0.33023441  0.70763991  0.65937357     0.14700
H1434       H  0.21186800  0.69872162  0.66082234     0.14600
H1435       H  0.28081605  0.75941876  0.66039834     0.32800
H1436       H  0.25987857  0.64562438  0.65933730     0.35500
C1437       C  0.46318212  0.78929393  0.66006189     0.21100
C1438       C  0.48355018  0.77778166  0.65959679    -0.38800
C1439       C  0.50256798  0.79105678  0.65867854     0.20100
C1440       C  0.50134471  0.81403216  0.65829695     0.22700
C1441       C  0.48100262  0.82554795  0.65877764    -0.39300
C1442       C  0.46201558  0.81227482  0.65967571     0.21500
N1443       N  0.44272951  0.78053335  0.66081624    -0.32600
C1444       C  0.42850661  0.79808966  0.66094683    -0.10100
C1445       C  0.43988823  0.81815475  0.66024716    -0.28900
N1446       N  0.52174180  0.82281487  0.65742261    -0.45500
C1447       C  0.53606888  0.80532883  0.65720649    -0.04800
C1448       C  0.52476472  0.78522173  0.65797345    -0.22200
H1449       H  0.48451408  0.75982461  0.65987748     0.19700
H1450       H  0.48003415  0.84350647  0.65845375     0.18400
H1451       H  0.43289225  0.83477745  0.66008233     0.14700
H1452       H  0.53183078  0.76863158  0.65807313     0.14600
H1453       H  0.43869342  0.76369476  0.66117678     0.32800
H1454       H  0.52568400  0.83967695  0.65701343     0.35500
C1455       C  0.70330106  0.27803210  0.66553662     0.21100
C1456       C  0.72629375  0.28139859  0.66437362    -0.38800
C1457       C  0.73309605  0.30360613  0.66422506     0.20100
C1458       C  0.71813429  0.32116646  0.66513690     0.22700
C1459       C  0.69505561  0.31778594  0.66623003    -0.39300
C1460       C  0.68822643  0.29550086  0.66641900     0.21500
N1461       N  0.69277401  0.25847723  0.66588322    -0.32600
C1462       C  0.67079272  0.26337666  0.66693740    -0.10100
C1463       C  0.66723426  0.28634255  0.66736042    -0.28900
N1464       N  0.72892565  0.34067275  0.66510477    -0.45500
C1465       C  0.75088365  0.33544706  0.66419680    -0.04800
C1466       C  0.75411980  0.31248431  0.66356113    -0.22200
H1467       H  0.73804307  0.26770405  0.66372303     0.19700
H1468       H  0.68331502  0.33147775  0.66697584     0.18400
H1469       H  0.65147758  0.29510577  0.66806744     0.14700
H1470       H  0.76976391  0.30350533  0.66293207     0.14600
H1471       H  0.70011433  0.24270074  0.66527727     0.32800
H1472       H  0.72182187  0.35654505  0.66582783     0.35500
C1473       C  0.64969158  0.16557218  0.73902261     0.21100
C1474       C  0.66239139  0.15049557  0.74868211    -0.38800
C1475       C  0.66033016  0.15235461  0.76673978     0.20100
C1476       C  0.64667087  0.16801755  0.77468971     0.22700
C1477       C  0.63405576  0.18326981  0.76501084    -0.39300
C1478       C  0.63613874  0.18141543  0.74687577     0.21500
N1479       N  0.64902168  0.16735969  0.72165697    -0.32600
C1480       C  0.63506721  0.18457994  0.71837175    -0.10100
C1481       C  0.62668621  0.19377465  0.73377067    -0.28900
N1482       N  0.64805973  0.16648912  0.79208803    -0.45500
C1483       C  0.66279468  0.14978185  0.79509747    -0.04800
C1484       C  0.67075255  0.14061422  0.77962784    -0.22200
H1485       H  0.67322096  0.13829127  0.74258118     0.19700
H1486       H  0.62355920  0.19575048  0.77112578     0.18400
H1487       H  0.61541127  0.20777665  0.73517358     0.14700
H1488       H  0.68290229  0.12739185  0.77803760     0.14600
H1489       H  0.65783749  0.15773353  0.71261004     0.32800
H1490       H  0.63994138  0.17647322  0.80129592     0.35500
C1491       C  0.26165195  0.28785275  0.66534497     0.21100
C1492       C  0.26597921  0.26496060  0.66587868    -0.38800
C1493       C  0.28846232  0.25877580  0.66548084     0.20100
C1494       C  0.30538085  0.27420307  0.66466473     0.22700
C1495       C  0.30103566  0.29716268  0.66426945    -0.39300
C1496       C  0.27849625  0.30336964  0.66461356     0.21500
N1497       N  0.24166937  0.29785181  0.66491859    -0.32600
C1498       C  0.24575346  0.31990242  0.66391549    -0.10100
C1499       C  0.26852891  0.32406533  0.66375568    -0.28900
N1500       N  0.32529261  0.26395481  0.66366186    -0.45500
C1501       C  0.32094078  0.24188453  0.66379523    -0.04800
C1502       C  0.29818101  0.23801549  0.66502479    -0.22200
H1503       H  0.25279053  0.25283748  0.66622161     0.19700
H1504       H  0.31419916  0.30926015  0.66340687     0.18400
H1505       H  0.27665014  0.33999494  0.66283982     0.14700
H1506       H  0.28985067  0.22213931  0.66512715     0.14600
H1507       H  0.22617963  0.29012320  0.66511352     0.32800
H1508       H  0.34082039  0.27147594  0.66261731     0.35500
C1509       C  0.47420520  0.21734276  0.66303870     0.21100
C1510       C  0.49257526  0.23114145  0.65987740    -0.38800
C1511       C  0.51352583  0.22225866  0.66437846     0.20100
C1512       C  0.51579558  0.20133040  0.67151281     0.22700
C1513       C  0.49755941  0.18770250  0.67474045    -0.39300
C1514       C  0.47680489  0.19646914  0.67018938     0.21500
N1515       N  0.45264184  0.22120380  0.65917702    -0.32600
C1516       C  0.44169278  0.20250014  0.66379913    -0.10100
C1517       C  0.45621599  0.18686135  0.67081019    -0.28900
N1518       N  0.53725814  0.19611779  0.67392101    -0.45500
C1519       C  0.54898318  0.21374786  0.66830381    -0.04800
C1520       C  0.53479233  0.23052768  0.66230643    -0.22200
H1521       H  0.49075328  0.24730922  0.65398719     0.19700
H1522       H  0.49945786  0.17118624  0.68001316     0.18400
H1523       H  0.45228330  0.17040234  0.67539053     0.14700
H1524       H  0.53941577  0.24625897  0.65671296     0.14600
H1525       H  0.44589994  0.23537194  0.65340474     0.32800
H1526       H  0.54358508  0.18119113  0.67876005     0.35500
C1527       C  0.22292598  0.19594722  0.83370505     0.21100
C1528       C  0.21721252  0.21799966  0.83004457    -0.38800
C1529       C  0.19484798  0.22369362  0.83253547     0.20100
C1530       C  0.17923575  0.20859503  0.83817776     0.22700
C1531       C  0.18497827  0.18644970  0.84188191    -0.39300
C1532       C  0.20746359  0.18072336  0.83939969     0.21500
N1533       N  0.24319084  0.18662451  0.83255815    -0.32600
C1534       C  0.24075218  0.16527386  0.83753638    -0.10100
C1535       C  0.21867617  0.16087617  0.84186407    -0.28900
N1536       N  0.15911230  0.21836766  0.83964383    -0.45500
C1537       C  0.16213827  0.23981602  0.83501207    -0.04800
C1538       C  0.18416325  0.24373505  0.83049542    -0.22200
H1539       H  0.22934988  0.22991219  0.82570098     0.19700
H1540       H  0.17288755  0.17460864  0.84641083     0.18400
H1541       H  0.21183391  0.14536002  0.84632124     0.14700
H1542       H  0.19141313  0.25924599  0.82642132     0.14600
H1543       H  0.25783493  0.19434863  0.82865790     0.32800
H1544       H  0.14437812  0.21104833  0.84380103     0.35500
C1545       C  0.34243637  0.14617405  0.76578637     0.21100
C1546       C  0.35785102  0.15806433  0.75593648    -0.38800
C1547       C  0.35572430  0.15599279  0.73786324     0.20100
C1548       C  0.33953254  0.14301377  0.73012592     0.22700
C1549       C  0.32409323  0.13110841  0.73998472    -0.39300
C1550       C  0.32619763  0.13321959  0.75808643     0.21500
N1551       N  0.34050909  0.14597519  0.78318168    -0.32600
C1552       C  0.32289810  0.13280608  0.78660469    -0.10100
C1553       C  0.31357019  0.12452148  0.77127866    -0.28900
N1554       N  0.34023153  0.14490651  0.71273855    -0.45500
C1555       C  0.35682054  0.15940332  0.70944858    -0.04800
C1556       C  0.36697246  0.16650121  0.72477696    -0.22200
H1557       H  0.37027280  0.16857252  0.76190275     0.19700
H1558       H  0.31111505  0.12130328  0.73401169     0.18400
H1559       H  0.29926869  0.11383022  0.76997291     0.14700
H1560       H  0.38011283  0.17857064  0.72619160     0.14600
H1561       H  0.35038510  0.15447716  0.79215603     0.32800
H1562       H  0.32942977  0.13765733  0.70374790     0.35500
C1563       C  0.21790082  0.78690868  0.84474978     0.21100
C1564       C  0.21403650  0.76412480  0.84284121    -0.38800
C1565       C  0.19205866  0.75743752  0.84524287     0.20100
C1566       C  0.17505795  0.77225551  0.84921457     0.22700
C1567       C  0.17894772  0.79519586  0.85116448    -0.39300
C1568       C  0.20109486  0.80194040  0.84876529     0.21500
N1569       N  0.23738425  0.79725879  0.84289711    -0.32600
C1570       C  0.23315944  0.81912340  0.84567760    -0.10100
C1571       C  0.21068132  0.82277910  0.84944503    -0.28900
N1572       N  0.15558947  0.76147646  0.85064803    -0.45500
C1573       C  0.16044943  0.73971222  0.84760794    -0.04800
C1574       C  0.18298812  0.73661454  0.84420573    -0.22200
H1575       H  0.22721157  0.75243635  0.83965255     0.19700
H1576       H  0.16574177  0.80689882  0.85422507     0.18400
H1577       H  0.20248305  0.83849635  0.85216054     0.14700
H1578       H  0.19156966  0.72116583  0.84124678     0.14600
H1579       H  0.25266392  0.78987218  0.83979176     0.32800
H1580       H  0.14003567  0.76844246  0.85347276     0.35500
C1581       C  0.33045969  0.83402511  0.77038983     0.21100
C1582       C  0.34324183  0.81912970  0.76029927    -0.38800
C1583       C  0.34123373  0.82140311  0.74222189     0.20100
C1584       C  0.32766237  0.83737845  0.73477995     0.22700
C1585       C  0.31483028  0.85216271  0.74485024    -0.39300
C1586       C  0.31670689  0.84978998  0.76288211     0.21500
N1587       N  0.32864109  0.83474258  0.78781139    -0.32600
C1588       C  0.31338959  0.85088418  0.79134143    -0.10100
C1589       C  0.30568095  0.86068132  0.77613128    -0.28900
N1590       N  0.32829203  0.83586408  0.71736461    -0.45500
C1591       C  0.34225360  0.81870279  0.71365083    -0.04800
C1592       C  0.35067007  0.80926630  0.72881615    -0.22200
H1593       H  0.35367715  0.80647167  0.76608088     0.19700
H1594       H  0.30386342  0.86436364  0.73906384     0.18400
H1595       H  0.29321342  0.87363930  0.77492035     0.14700
H1596       H  0.36194798  0.79524359  0.72987595     0.14600
H1597       H  0.33665210  0.82439835  0.79669254     0.32800
H1598       H  0.31945999  0.84563620  0.70855527     0.35500
C1599       C  0.27549353  0.01408664  0.83599806     0.21100
C1600       C  0.26186227  0.99534894  0.83773262    -0.38800
C1601       C  0.27290642  0.97466272  0.83722596     0.20100
C1602       C  0.29573915  0.97291079  0.83526702     0.22700
C1603       C  0.30927739  0.99154067  0.83343631    -0.39300
C1604       C  0.29827310  0.01208394  0.83383467     0.21500
N1605       N  0.26936209  0.03565797  0.83662930    -0.32600
C1606       C  0.28847201  0.04725412  0.83483644    -0.10100
C1607       C  0.30674679  0.03312346  0.83296493    -0.28900
N1608       N  0.30237740  0.95161140  0.83576722    -0.45500
C1609       C  0.28368982  0.93956767  0.83799279    -0.04800
C1610       C  0.26490414  0.95331685  0.83887683    -0.22200
H1611       H  0.24406639  0.99676806  0.83954918     0.19700
H1612       H  0.32714027  0.99015163  0.83202946     0.18400
H1613       H  0.32403717  0.03767116  0.83164842     0.14700
H1614       H  0.24782537  0.94839601  0.84081494     0.14600
H1615       H  0.25334532  0.04206477  0.83849832     0.32800
H1616       H  0.31868485  0.94563109  0.83478735     0.35500
C1617       C  0.36068748  0.13824652  0.55186638     0.21100
C1618       C  0.35259767  0.15520968  0.56281173    -0.38800
C1619       C  0.35620263  0.15219299  0.58061789     0.20100
C1620       C  0.36681066  0.13354328  0.58711726     0.22700
C1621       C  0.37479846  0.11646999  0.57613871    -0.39300
C1622       C  0.37141859  0.11964395  0.55826748     0.21500
N1623       N  0.36077439  0.13806406  0.53442836    -0.32600
C1624       C  0.37178793  0.11925870  0.52954443    -0.10100
C1625       C  0.37856449  0.10727822  0.54413363    -0.28900
N1626       N  0.36999115  0.13567828  0.60435946    -0.45500
C1627       C  0.36172183  0.15600660  0.60875437    -0.04800
C1628       C  0.35273152  0.16663345  0.59432738    -0.22200
H1629       H  0.34494085  0.17015243  0.55777246     0.19700
H1630       H  0.38382710  0.10224732  0.58108356     0.18400
H1631       H  0.38789676  0.09186236  0.54449554     0.14700
H1632       H  0.34585863  0.18328505  0.59375953     0.14600
H1633       H  0.35435411  0.15047221  0.52643958     0.32800
H1634       H  0.37853136  0.12465440  0.61241138     0.35500
C1635       C  0.61311229  0.15367438  0.56125792     0.21100
C1636       C  0.61113385  0.17378354  0.57052348    -0.38800
C1637       C  0.61911816  0.17358186  0.58764376     0.20100
C1638       C  0.62837577  0.15477957  0.59502620     0.22700
C1639       C  0.63052995  0.13469930  0.58568225    -0.39300
C1640       C  0.62252896  0.13491376  0.56853207     0.21500
N1641       N  0.60493116  0.14905016  0.54540467    -0.32600
C1642       C  0.60896401  0.12712701  0.54245802    -0.10100
C1643       C  0.62022015  0.11782909  0.55661795    -0.28900
N1644       N  0.63284366  0.15837285  0.61195677    -0.45500
C1645       C  0.62630002  0.17959315  0.61537105    -0.04800
C1646       C  0.61787418  0.18964531  0.60046893    -0.22200
H1647       H  0.60312103  0.18827553  0.56504206     0.19700
H1648       H  0.63709415  0.11975752  0.59155840     0.18400
H1649       H  0.62488068  0.10066903  0.55861988     0.14700
H1650       H  0.61062469  0.20609427  0.59941240     0.14600
H1651       H  0.59612182  0.15989529  0.53737762     0.32800
H1652       H  0.63901489  0.14681821  0.62080689     0.35500
C1653       C  0.50886130  0.10330281  0.49680057     0.21100
C1654       C  0.49168922  0.10336451  0.48442446    -0.38800
C1655       C  0.46995375  0.10374453  0.49111471     0.20100
C1656       C  0.46567094  0.10385748  0.50876171     0.22700
C1657       C  0.48281747  0.10418784  0.52110751    -0.39300
C1658       C  0.50451538  0.10397244  0.51443007     0.21500
N1659       N  0.53091982  0.10293886  0.49384597    -0.32600
C1660       C  0.54067969  0.10367550  0.50971552    -0.10100
C1661       C  0.52470168  0.10436828  0.52285544    -0.28900
N1662       N  0.44366562  0.10381820  0.51181461    -0.45500
C1663       C  0.43379697  0.10398123  0.49601067    -0.04800
C1664       C  0.44966909  0.10400690  0.48276634    -0.22200
H1665       H  0.49499947  0.10311583  0.47062006     0.19700
H1666       H  0.47950776  0.10455417  0.53491111     0.18400
H1667       H  0.52746978  0.10502449  0.53672556     0.14700
H1668       H  0.44675797  0.10404305  0.46890756     0.14600
H1669       H  0.53881624  0.10276810  0.48177733     0.32800
H1670       H  0.43585182  0.10412834  0.52391681     0.35500
C1671       C  0.36277312  0.84869117  0.55676992     0.21100
C1672       C  0.36557453  0.82884716  0.56590807    -0.38800
C1673       C  0.35727060  0.82893107  0.58288938     0.20100
C1674       C  0.34684357  0.84732933  0.59022856     0.22700
C1675       C  0.34396736  0.86717770  0.58103292    -0.39300
C1676       C  0.35242339  0.86713336  0.56405619     0.21500
N1677       N  0.37119460  0.85350691  0.54114840    -0.32600
C1678       C  0.36662804  0.87530166  0.53850503    -0.10100
C1679       C  0.35453480  0.88426625  0.55245865    -0.28900
N1680       N  0.34223915  0.84377298  0.60705739    -0.45500
C1681       C  0.34997143  0.82303871  0.61042553    -0.04800
C1682       C  0.35926745  0.81321754  0.59563848    -0.22200
H1683       H  0.37447537  0.81471924  0.56047436     0.19700
H1684       H  0.33664752  0.88188875  0.58693443     0.18400
H1685       H  0.34914998  0.90124745  0.55454550     0.14700
H1686       H  0.36754572  0.79722448  0.59462738     0.14600
H1687       H  0.38067588  0.84297236  0.53318558     0.32800
H1688       H  0.33535268  0.85513383  0.61590150     0.35500
C1689       C  0.37695715  0.97966838  0.49539541     0.21100
C1690       C  0.37431865  0.99721287  0.48374527    -0.38800
C1691       C  0.37519752  0.01856460  0.49108124     0.20100
C1692       C  0.37876760  0.02222896  0.50861994     0.22700
C1693       C  0.38113278  0.00467108  0.52031795    -0.39300
C1694       C  0.37990425  0.98329506  0.51302106     0.21500
N1695       N  0.37695252  0.95782977  0.49167138    -0.32600
C1696       C  0.37944321  0.94754546  0.50709727    -0.10100
C1697       C  0.38135840  0.96282317  0.52070751    -0.28900
N1698       N  0.38003086  0.04408449  0.51214912    -0.45500
C1699       C  0.37709220  0.05435385  0.49673554    -0.04800
C1700       C  0.37384916  0.03896917  0.48333912    -0.22200
H1701       H  0.37192289  0.99445370  0.46997485     0.19700
H1702       H  0.38383668  0.00743734  0.53405210     0.18400
H1703       H  0.38378961  0.95937400  0.53433951     0.14700
H1704       H  0.37176030  0.04220863  0.46964321     0.14600
H1705       H  0.37505072  0.95037078  0.47947363     0.32800
H1706       H  0.38289155  0.05148243  0.52424703     0.35500
C1707       C  0.61330204  0.86345136  0.54881728     0.21100
C1708       C  0.62038022  0.84580493  0.55925698    -0.38800
C1709       C  0.61759519  0.84891517  0.57716315     0.20100
C1710       C  0.60852129  0.86817872  0.58421076     0.22700
C1711       C  0.60137099  0.88586657  0.57372210    -0.39300
C1712       C  0.60408847  0.88269725  0.55574136     0.21500
N1713       N  0.61332061  0.86405933  0.53141643    -0.32600
C1714       C  0.60393776  0.88381064  0.52706414    -0.10100
C1715       C  0.59799962  0.89593386  0.54195527    -0.28900
N1716       N  0.60656747  0.86642631  0.60155621    -0.45500
C1717       C  0.61425837  0.84581543  0.60548188    -0.04800
C1718       C  0.62138468  0.83448969  0.59061085    -0.22200
H1719       H  0.62707504  0.83052962  0.55380034     0.19700
H1720       H  0.59376378  0.90074247  0.57912388     0.18400
H1721       H  0.58998462  0.91206208  0.54269457     0.14700
H1722       H  0.62761270  0.81759903  0.58968434     0.14600
H1723       H  0.61876498  0.85136315  0.52309733     0.32800
H1724       H  0.59954059  0.87810249  0.61007755     0.35500
C1725       C  0.60111735  0.98061716  0.50719053     0.21100
C1726       C  0.60149974  0.99782938  0.51954601    -0.38800
C1727       C  0.60205731  0.01940036  0.51288167     0.20100
C1728       C  0.60199397  0.02359341  0.49524579     0.22700
C1729       C  0.60212657  0.00633114  0.48285829    -0.39300
C1730       C  0.60177068  0.98470270  0.48954626     0.21500
N1731       N  0.59937956  0.95875593  0.51022253    -0.32600
C1732       C  0.59922142  0.94878016  0.49440758    -0.10100
C1733       C  0.60081774  0.96440782  0.48118058    -0.28900
N1734       N  0.60061954  0.04557331  0.49232679    -0.45500
C1735       C  0.60003828  0.05535624  0.50823958    -0.04800
C1736       C  0.60115071  0.03957715  0.52135021    -0.22200
H1737       H  0.60079103  0.99468061  0.53333959     0.19700
H1738       H  0.60188721  0.00950098  0.46905670     0.18400
H1739       H  0.60053903  0.96137974  0.46731811     0.14700
H1740       H  0.60021975  0.04244413  0.53521660     0.14600
H1741       H  0.59836673  0.95111164  0.52230743     0.32800
H1742       H  0.59973499  0.05339489  0.48030029     0.35500
C1743       C  0.50687236  0.89883030  0.48998251     0.21100
C1744       C  0.48590638  0.89860448  0.48201675    -0.38800
C1745       C  0.46766732  0.89842316  0.49330879     0.20100
C1746       C  0.47015012  0.89815335  0.51116486     0.22700
C1747       C  0.49112986  0.89866438  0.51914360    -0.39300
C1748       C  0.50938732  0.89915719  0.50783988     0.21500
N1749       N  0.52674756  0.89865818  0.48209538    -0.32600
C1750       C  0.54206643  0.89913671  0.49499409    -0.10100
C1751       C  0.53189707  0.89958018  0.51125718    -0.28900
N1752       N  0.45024527  0.89737712  0.51899766    -0.45500
C1753       C  0.43500076  0.89742587  0.50603251    -0.04800
C1754       C  0.44521122  0.89817509  0.48982436    -0.22200
H1755       H  0.48395013  0.89849645  0.46805407     0.19700
H1756       H  0.49308719  0.89859946  0.53310482     0.18400
H1757       H  0.53988677  0.89960856  0.52384385     0.14700
H1758       H  0.43729703  0.89812318  0.47720813     0.14600
H1759       H  0.52968416  0.89835903  0.46873784     0.32800
H1760       H  0.44722961  0.89710489  0.53234003     0.35500
C1761       C  0.68749800  0.25495575  0.34777115     0.21100
C1762       C  0.71029612  0.25947141  0.34822152    -0.38800
C1763       C  0.71592456  0.28199244  0.34881704     0.20100
C1764       C  0.70009011  0.29881396  0.34898197     0.22700
C1765       C  0.67720285  0.29427266  0.34862042    -0.39300
C1766       C  0.67154665  0.27166941  0.34798851     0.21500
N1767       N  0.67797518  0.23489328  0.34704830    -0.32600
C1768       C  0.65577574  0.23876693  0.34687877    -0.10100
C1769       C  0.65105515  0.26151021  0.34740020    -0.28900
N1770       N  0.70988367  0.31885338  0.34888845    -0.45500
C1771       C  0.73206624  0.31464067  0.34855905    -0.04800
C1772       C  0.73644425  0.29186722  0.34865107    -0.22200
H1773       H  0.72275474  0.24639922  0.34792294     0.19700
H1774       H  0.66474940  0.30734794  0.34862753     0.18400
H1775       H  0.63486759  0.26948657  0.34744048     0.14700
H1776       H  0.75250309  0.28364283  0.34817421     0.14600
H1777       H  0.68608987  0.21948354  0.34680037     0.32800
H1778       H  0.70200092  0.33437219  0.34866029     0.35500
C1779       C  0.60650377  0.13550317  0.41962787     0.21100
C1780       C  0.60095413  0.11756864  0.43032536    -0.38800
C1781       C  0.60201288  0.12172319  0.44829328     0.20100
C1782       C  0.60820360  0.14212564  0.45506047     0.22700
C1783       C  0.61350706  0.16009271  0.44439260    -0.39300
C1784       C  0.61238668  0.15597528  0.42646858     0.21500
N1785       N  0.60623955  0.13608738  0.40215338    -0.32600
C1786       C  0.61178708  0.15715644  0.39789377    -0.10100
C1787       C  0.61575051  0.17000212  0.41271895    -0.28900
N1788       N  0.60774875  0.14193032  0.47249663    -0.45500
C1789       C  0.60104514  0.12128567  0.47696544    -0.04800
C1790       C  0.59729670  0.10821352  0.46217077    -0.22200
H1791       H  0.59597997  0.10163387  0.42505793     0.19700
H1792       H  0.61798440  0.17617649  0.44966544     0.18400
H1793       H  0.61996553  0.18744288  0.41334830     0.14700
H1794       H  0.59183548  0.09114244  0.46156939     0.14600
H1795       H  0.60182801  0.12320929  0.39368440     0.32800
H1796       H  0.61126781  0.15526375  0.48078808     0.35500
C1797       C  0.27845867  0.27417388  0.34042827     0.21100
C1798       C  0.25561995  0.27849854  0.33971345    -0.38800
C1799       C  0.24929280  0.30061190  0.34247039     0.20100
C1800       C  0.26449798  0.31730228  0.34569505     0.22700
C1801       C  0.28750192  0.31293851  0.34647515    -0.39300
C1802       C  0.29389290  0.29065291  0.34367723     0.21500
N1803       N  0.28845778  0.25441206  0.33826921    -0.23000
C1804       C  0.31048189  0.25810320  0.34013876    -0.10100
C1805       C  0.31464744  0.28055423  0.34349267    -0.28900
N1806       N  0.25404007  0.33708455  0.34724935    -0.45500
C1807       C  0.23212517  0.33273305  0.34494033    -0.04800
C1808       C  0.22855705  0.31019616  0.34205069    -0.22200
H1809       H  0.24363726  0.26557178  0.33707488     0.19700
H1810       H  0.29949680  0.32590979  0.34891239     0.18400
H1811       H  0.33057291  0.28831539  0.34574052     0.14700
H1812       H  0.21291916  0.30201751  0.33946756     0.14600
H1813       H  0.28070378  0.23922654  0.33582704     0.32800
H1814       H  0.26134482  0.35256728  0.34934243     0.35500
C1815       C  0.46319296  0.20978459  0.34293945     0.21100
C1816       C  0.48331715  0.22123359  0.34477557    -0.38800
C1817       C  0.50263397  0.20801957  0.34404263     0.20100
C1818       C  0.50189214  0.18518857  0.34171817     0.22700
C1819       C  0.48183529  0.17375880  0.33998988    -0.39300
C1820       C  0.46259968  0.18693702  0.34069976     0.21500
N1821       N  0.44250042  0.21842653  0.34294756    -0.32600
C1822       C  0.42879398  0.20085230  0.34076501    -0.10100
C1823       C  0.44070062  0.18098951  0.33936215    -0.28900
N1824       N  0.52243944  0.17641394  0.34139655    -0.45500
C1825       C  0.53640574  0.19375497  0.34352241    -0.04800
C1826       C  0.52472588  0.21376616  0.34521987    -0.22200
H1827       H  0.48390064  0.23908045  0.34653696     0.19700
H1828       H  0.48125212  0.15591689  0.33817232     0.18400
H1829       H  0.43417614  0.16441981  0.33753052     0.14700
H1830       H  0.53148214  0.23022665  0.34710523     0.14600
H1831       H  0.43798818  0.23513263  0.34440551     0.32800
H1832       H  0.52670222  0.15965154  0.33985419     0.35500
C1833       C  0.35407779  0.16823407  0.41696433     0.21100
C1834       C  0.36130349  0.17089277  0.43413599    -0.38800
C1835       C  0.36001977  0.15197809  0.44449989     0.20100
C1836       C  0.35212947  0.13192438  0.43824982     0.22700
C1837       C  0.34488099  0.12924148  0.42102217    -0.39300
C1838       C  0.34618299  0.14819838  0.41061472     0.21500
N1839       N  0.35539466  0.18321681  0.40426014    -0.32600
C1840       C  0.34847319  0.17269003  0.38965385    -0.10100
C1841       C  0.34239230  0.15083186  0.39307491    -0.28900
N1842       N  0.35467249  0.11597151  0.45017266    -0.45500
C1843       C  0.36453500  0.12588499  0.46408570    -0.04800
C1844       C  0.36780442  0.14843606  0.46103248    -0.22200
H1845       H  0.36828287  0.18632231  0.43887179     0.19700
H1846       H  0.33951757  0.11334912  0.41591675     0.18400
H1847       H  0.33714200  0.13826863  0.38384230     0.14700
H1848       H  0.37628376  0.16023671  0.46933924     0.14600
H1849       H  0.36165701  0.19931664  0.40530609     0.32800
H1850       H  0.35122616  0.09918730  0.44821201     0.35500
C1851       C  0.76863552  0.18325162  0.16216434     0.21100
C1852       C  0.79173760  0.18678283  0.16274902    -0.38800
C1853       C  0.79838566  0.20914905  0.16326808     0.20100
C1854       C  0.78311717  0.22648405  0.16309447     0.22700
C1855       C  0.76017854  0.22297008  0.16244818    -0.39300
C1856       C  0.75358371  0.20076762  0.16204981     0.21500
N1857       N  0.75786544  0.16371082  0.16219942    -0.32600
C1858       C  0.73589136  0.16903648  0.16220984    -0.10100
C1859       C  0.73262469  0.19194290  0.16205057    -0.28900
N1860       N  0.79336721  0.24612825  0.16399104    -0.45500
C1861       C  0.81538456  0.24147694  0.16479526    -0.04800
C1862       C  0.81927400  0.21855224  0.16435110    -0.22200
H1863       H  0.80359858  0.17317807  0.16304432     0.19700
H1864       H  0.74829680  0.23657072  0.16252232     0.18400
H1865       H  0.71697305  0.20094124  0.16220000     0.14700
H1866       H  0.83514180  0.20998400  0.16484588     0.14600
H1867       H  0.76496458  0.14782574  0.16249891     0.32800
H1868       H  0.78579332  0.26180987  0.16415866     0.35500
C1869       C  0.65141580  0.13566702  0.24305216     0.21100
C1870       C  0.65433439  0.13108036  0.26074955    -0.38800
C1871       C  0.64107760  0.14362279  0.27223341     0.20100
C1872       C  0.62617882  0.15957769  0.26647148     0.22700
C1873       C  0.62324449  0.16414643  0.24878778    -0.39300
C1874       C  0.63641946  0.15154503  0.23731338     0.21500
N1875       N  0.66236565  0.12640547  0.22960547    -0.32600
C1876       C  0.65430693  0.13645208  0.21521095    -0.10100
C1877       C  0.63804359  0.15220701  0.21947286    -0.28900
N1878       N  0.61612848  0.16974723  0.27993312    -0.45500
C1879       C  0.62460516  0.16021360  0.29439400    -0.04800
C1880       C  0.64018352  0.14376000  0.29014400    -0.22200
H1881       H  0.66621024  0.11881682  0.26524574     0.19700
H1882       H  0.61173803  0.17676900  0.24431263     0.18400
H1883       H  0.62897691  0.16296556  0.21074321     0.14700
H1884       H  0.64995254  0.13373669  0.29894876     0.14600
H1885       H  0.67480400  0.11422611  0.23019951     0.32800
H1886       H  0.60447408  0.18267769  0.27933034     0.35500
C1887       C  0.75479298  0.78923726  0.15564479     0.21100
C1888       C  0.75740927  0.76611465  0.15476156    -0.38800
C1889       C  0.77936286  0.75829254  0.15475851     0.20100
C1890       C  0.79737627  0.77244771  0.15548907     0.22700
C1891       C  0.79474688  0.79568632  0.15625037    -0.39300
C1892       C  0.77269429  0.80354045  0.15635454     0.21500
N1893       N  0.73558339  0.80056328  0.15638445    -0.32600
C1894       C  0.74111414  0.82227489  0.15758920    -0.10100
C1895       C  0.76415842  0.82491390  0.15758002    -0.28900
N1896       N  0.81648605  0.76074470  0.15604827    -0.45500
C1897       C  0.81053964  0.73904201  0.15575026    -0.04800
C1898       C  0.78752167  0.73685338  0.15483014    -0.22200
H1899       H  0.74334433  0.75500730  0.15444334     0.19700
H1900       H  0.80879746  0.80677398  0.15704955     0.18400
H1901       H  0.77335063  0.84026746  0.15850364     0.14700
H1902       H  0.77803568  0.72164313  0.15467219     0.14600
H1903       H  0.71960682  0.79387508  0.15620326     0.32800
H1904       H  0.83255690  0.76711002  0.15692604     0.35500
C1905       C  0.70184161  0.97774694  0.16032269     0.21100
C1906       C  0.71430239  0.99739872  0.16015513    -0.38800
C1907       C  0.70184568  0.01722087  0.15956321     0.20100
C1908       C  0.67882488  0.01730492  0.15901606     0.22700
C1909       C  0.66644265  0.99776457  0.15911430    -0.39300
C1910       C  0.67882553  0.97808725  0.15986927     0.21500
N1911       N  0.70950850  0.95672129  0.16113581    -0.32600
C1912       C  0.69113001  0.94381620  0.16123165    -0.10100
C1913       C  0.67175895  0.95653672  0.16048402    -0.28900
N1914       N  0.67079195  0.03809687  0.15916157    -0.45500
C1915       C  0.68874257  0.05146025  0.15996009    -0.04800
C1916       C  0.70848379  0.03912439  0.16011231    -0.22200
H1917       H  0.73227996  0.99727970  0.16073781     0.19700
H1918       H  0.64844704  0.99789300  0.15891277     0.18400
H1919       H  0.65476393  0.95074932  0.16027876     0.14700
H1920       H  0.72529566  0.04531572  0.16097116     0.14600
H1921       H  0.72609647  0.95148950  0.16153767     0.32800
H1922       H  0.65406214  0.04289800  0.15916302     0.35500
C1923       C  0.31097230  0.72838118  0.34370353     0.21100
C1924       C  0.30788189  0.70529062  0.34207160    -0.38800
C1925       C  0.28565667  0.69817611  0.34206386     0.20100
C1926       C  0.26806408  0.71302003  0.34368214     0.22700
C1927       C  0.27113842  0.73596066  0.34530719    -0.39300
C1928       C  0.29320246  0.74302911  0.34518669     0.21500
N1929       N  0.33027805  0.73953311  0.34350352    -0.32600
C1930       C  0.32457935  0.76135366  0.34471485    -0.10100
C1931       C  0.30163744  0.76415734  0.34584433    -0.28900
N1932       N  0.24861558  0.70238691  0.34323202    -0.45500
C1933       C  0.25361954  0.68054739  0.34127763    -0.04800
C1934       C  0.27661565  0.67715472  0.34046941    -0.22200
H1935       H  0.32170096  0.69378615  0.34070949     0.19700
H1936       H  0.25730582  0.74750457  0.34636478     0.18400
H1937       H  0.29236392  0.77961446  0.34670136     0.14700
H1938       H  0.28545671  0.66152361  0.33899677     0.14600
H1939       H  0.34625210  0.73279316  0.34221553     0.32800
H1940       H  0.23280660  0.70960591  0.34419472     0.35500
C1941       C  0.37474071  0.88183140  0.44538099     0.21100
C1942       C  0.37925101  0.88646056  0.42788512    -0.38800
C1943       C  0.37178294  0.87060651  0.41577104     0.20100
C1944       C  0.36079571  0.85158984  0.42078902     0.22700
C1945       C  0.35628001  0.84699947  0.43824427    -0.39300
C1946       C  0.36364068  0.86287692  0.45030506     0.21500
N1947       N  0.38072350  0.89383629  0.45938939    -0.32600
C1948       C  0.37341685  0.88244124  0.47339046    -0.10100
C1949       C  0.36257754  0.86304668  0.46815156    -0.28900
N1950       N  0.35649648  0.83854119  0.40700143    -0.45500
C1951       C  0.36475965  0.84923218  0.39304009    -0.04800
C1952       C  0.37432933  0.86940405  0.39795432    -0.22200
H1953       H  0.38824891  0.90111238  0.42402288     0.19700
H1954       H  0.34799526  0.83195526  0.44216678     0.18400
H1955       H  0.35543592  0.85036189  0.47624128     0.14700
H1956       H  0.38290612  0.88104550  0.38974364     0.14600
H1957       H  0.38943783  0.90875529  0.45926274     0.32800
H1958       H  0.34904109  0.82292420  0.40715158     0.35500
C1959       C  0.70158141  0.72162650  0.34601148     0.21100
C1960       C  0.72428106  0.71744813  0.34859962    -0.38800
C1961       C  0.73066951  0.69503777  0.34860746     0.20100
C1962       C  0.71560205  0.67799097  0.34630422     0.22700
C1963       C  0.69277108  0.68218887  0.34382159    -0.39300
C1964       C  0.68635861  0.70471600  0.34372476     0.21500
N1965       N  0.69158449  0.74155981  0.34500685    -0.32600
C1966       C  0.66977658  0.73749816  0.34209475    -0.10100
C1967       C  0.66579769  0.71466805  0.34119705    -0.28900
N1968       N  0.72619722  0.65820314  0.34580347    -0.45500
C1969       C  0.74812805  0.66281492  0.34763082    -0.04800
C1970       C  0.75151207  0.68557715  0.34958877    -0.22200
H1971       H  0.73618973  0.73072144  0.35009576     0.19700
H1972       H  0.68097594  0.66894073  0.34173803     0.18400
H1973       H  0.65007207  0.70650412  0.33897199     0.14700
H1974       H  0.76721209  0.69412076  0.35081689     0.14600
H1975       H  0.69917519  0.75705033  0.34623020     0.32800
H1976       H  0.71907030  0.64264382  0.34367356     0.35500
C1977       C  0.65220415  0.83746635  0.26681702     0.21100
C1978       C  0.66565110  0.85186173  0.25730979    -0.38800
C1979       C  0.66203671  0.85190836  0.23934815     0.20100
C1980       C  0.64619732  0.83868700  0.23140925     0.22700
C1981       C  0.63280957  0.82417362  0.24091801    -0.39300
C1982       C  0.63649450  0.82405806  0.25891066     0.21500
N1983       N  0.65256573  0.83422003  0.28404154    -0.32600
C1984       C  0.63706675  0.81853531  0.28713262    -0.10100
C1985       C  0.62672991  0.81173021  0.27178176    -0.28900
N1986       N  0.64670558  0.84118538  0.21408809    -0.45500
C1987       C  0.66313682  0.85593727  0.21104805    -0.04800
C1988       C  0.67296501  0.86308811  0.22647115    -0.22200
H1989       H  0.67820322  0.86207372  0.26342470     0.19700
H1990       H  0.62065912  0.81353800  0.23474760     0.18400
H1991       H  0.61380267  0.79945349  0.27026859     0.14700
H1992       H  0.68681684  0.87431417  0.22799529     0.14600
H1993       H  0.66284459  0.84204299  0.29311573     0.32800
H1994       H  0.63709871  0.83276136  0.20488980     0.35500
C1995       C  0.47468475  0.79085415  0.34256124     0.21100
C1996       C  0.49274951  0.77583444  0.34235897    -0.38800
C1997       C  0.51395859  0.78544074  0.34124551     0.20100
C1998       C  0.51678803  0.80821693  0.34045137     0.22700
C1999       C  0.49882854  0.82315016  0.34073787    -0.39300
C2000       C  0.47775938  0.81359429  0.34178944     0.21500
N2001       N  0.45284743  0.78610441  0.34310311    -0.32600
C2002       C  0.44212281  0.80601797  0.34261212    -0.10100
C2003       C  0.45711030  0.82349191  0.34185712    -0.28900
N2004       N  0.53838896  0.81329719  0.33928120    -0.45500
C2005       C  0.54959497  0.79369681  0.33933053    -0.04800
C2006       C  0.53494632  0.77585753  0.34056417    -0.22200
H2007       H  0.49046086  0.75803390  0.34286551     0.19700
H2008       H  0.50109704  0.84094235  0.34001847     0.18400
H2009       H  0.45337047  0.84108666  0.34120220     0.14700
H2010       H  0.53908273  0.75833713  0.34092617     0.14600
H2011       H  0.44569566  0.77036111  0.34356266     0.32800
H2012       H  0.54512502  0.82920835  0.33853374     0.35500
C2013       C  0.62391583  0.86760114  0.43680888     0.21100
C2014       C  0.63239910  0.86900466  0.41987084    -0.38800
C2015       C  0.63083820  0.84960567  0.40970689     0.20100
C2016       C  0.62167519  0.83026646  0.41603286     0.22700
C2017       C  0.61336988  0.82881305  0.43298700    -0.39300
C2018       C  0.61480461  0.84823153  0.44307779     0.21500
N2019       N  0.62127987  0.88432741  0.44831492    -0.32600
C2020       C  0.61013031  0.87561709  0.46196539    -0.10100
C2021       C  0.60616868  0.85302677  0.45921996    -0.28900
N2022       N  0.62026302  0.81480219  0.40343594    -0.45500
C2023       C  0.62837524  0.82434620  0.38891374    -0.04800
C2024       C  0.63535143  0.84601518  0.39232592    -0.22200
H2025       H  0.63874190  0.88437558  0.41471575     0.19700
H2026       H  0.60541494  0.81396644  0.43769587     0.18400
H2027       H  0.59688323  0.84199689  0.46748174     0.14700
H2028       H  0.64165751  0.85791113  0.38313927     0.14600
H2029       H  0.62580595  0.90079829  0.44633875     0.32800
H2030       H  0.61317074  0.79907734  0.40445422     0.35500
C2031       C  0.20626408  0.19589961  0.15775197     0.21100
C2032       C  0.18352785  0.20095327  0.15601355    -0.38800
C2033       C  0.17802564  0.22367965  0.15583784     0.20100
C2034       C  0.19397932  0.24006025  0.15724586     0.22700
C2035       C  0.21666226  0.23502191  0.15897605    -0.39300
C2036       C  0.22213488  0.21235299  0.15919681     0.21500
N2037       N  0.21585739  0.17563490  0.15820876    -0.32600
C2038       C  0.23796802  0.17929901  0.15994736    -0.10100
C2039       C  0.24249546  0.20197355  0.16065441    -0.28900
N2040       N  0.18450896  0.26033215  0.15718651    -0.45500
C2041       C  0.16233732  0.25690320  0.15583404    -0.04800
C2042       C  0.15762009  0.23425181  0.15486242    -0.22200
H2043       H  0.17104479  0.18815389  0.15498297     0.19700
H2044       H  0.22912752  0.24782057  0.16017239     0.18400
H2045       H  0.25857114  0.20980057  0.16185482     0.14700
H2046       H  0.14144212  0.22657582  0.15398816     0.14600
H2047       H  0.20790980  0.16030386  0.15724067     0.32800
H2048       H  0.19259969  0.27556715  0.15838011     0.35500
C2049       C  0.34770893  0.16496192  0.26144408     0.21100
C2050       C  0.35153968  0.16731778  0.24360796    -0.38800
C2051       C  0.33841824  0.15411057  0.23266139     0.20100
C2052       C  0.32276679  0.13952230  0.23900783     0.22700
C2053       C  0.31916616  0.13690593  0.25688119    -0.39300
C2054       C  0.33217855  0.15027465  0.26783887     0.21500
N2055       N  0.35638211  0.17728189  0.27433917    -0.32600
C2056       C  0.34621868  0.17054657  0.28904409    -0.10100
C2057       C  0.33120299  0.15351843  0.28557266    -0.28900
N2058       N  0.31097224  0.13054024  0.22593284    -0.45500
C2059       C  0.31909986  0.13957081  0.21119625    -0.04800
C2060       C  0.33641062  0.15414282  0.21484856    -0.22200
H2061       H  0.36310806  0.17935964  0.23859904     0.19700
H2062       H  0.30640338  0.12610001  0.26185265     0.18400
H2063       H  0.32020793  0.14548636  0.29464619     0.14700
H2064       H  0.34542853  0.16432659  0.20578087     0.14600
H2065       H  0.36781730  0.19014926  0.27311486     0.32800
H2066       H  0.29758670  0.11968408  0.22701486     0.35500
C2067       C  0.18903731  0.77419525  0.15931022     0.21100
C2068       C  0.21128413  0.77837366  0.15527038    -0.38800
C2069       C  0.21850304  0.80003748  0.15851567     0.20100
C2070       C  0.20468037  0.81645928  0.16525340     0.22700
C2071       C  0.18228578  0.81225188  0.16933611    -0.39300
C2072       C  0.17499581  0.79042925  0.16606111     0.21500
N2073       N  0.17847176  0.75477099  0.15766189    -0.32600
C2074       C  0.15745741  0.75845865  0.16334909    -0.10100
C2075       C  0.15455557  0.78055774  0.16867483    -0.28900
N2076       N  0.21585363  0.83566030  0.16717793    -0.45500
C2077       C  0.23687354  0.83119238  0.16166172    -0.04800
C2078       C  0.23909996  0.80918852  0.15620108    -0.22200
H2079       H  0.22224301  0.76560630  0.15008062     0.19700
H2080       H  0.17140137  0.82495673  0.17470377     0.18400
H2081       H  0.13968699  0.78822030  0.17399144     0.14700
H2082       H  0.25387895  0.80096455  0.15123498     0.14600
H2083       H  0.18524093  0.73979811  0.15307222     0.32800
H2084       H  0.20966884  0.85073270  0.17204929     0.35500
C2085       C  0.32388411  0.86097878  0.23945509     0.21100
C2086       C  0.32144599  0.86619052  0.25713132    -0.38800
C2087       C  0.33490750  0.85401196  0.26848931     0.20100
C2088       C  0.34962308  0.83781478  0.26264806     0.22700
C2089       C  0.35201203  0.83252580  0.24492703    -0.39300
C2090       C  0.33856923  0.84479391  0.23353501     0.21500
N2091       N  0.31287330  0.87017140  0.22618410    -0.32600
C2092       C  0.32050279  0.85985999  0.21164636    -0.10100
C2093       C  0.33660376  0.84386961  0.21565270    -0.28900
N2094       N  0.36026018  0.82842844  0.27607577    -0.45500
C2095       C  0.35227235  0.83869495  0.29055746    -0.04800
C2096       C  0.33641053  0.85478408  0.28635501    -0.22200
H2097       H  0.30985578  0.87878112  0.26170124     0.19700
H2098       H  0.36343884  0.81978012  0.24036908     0.18400
H2099       H  0.34548166  0.83298758  0.20675216     0.14700
H2100       H  0.32699490  0.86531484  0.29517430     0.14600
H2101       H  0.30075546  0.88266784  0.22698416     0.32800
H2102       H  0.37201249  0.81557688  0.27545019     0.35500
C2103       C  0.27364746  0.02265190  0.16123798     0.21100
C2104       C  0.26097052  0.00311044  0.16033130    -0.38800
C2105       C  0.27306527  0.98307106  0.16159090     0.20100
C2106       C  0.29594110  0.98268201  0.16363737     0.22700
C2107       C  0.30852507  0.00208129  0.16451375    -0.39300
C2108       C  0.29651653  0.02195543  0.16323409     0.21500
N2109       N  0.26640155  0.04386177  0.16024442    -0.32600
C2110       C  0.28492139  0.05651361  0.16162343    -0.10100
C2111       C  0.30391486  0.04341783  0.16350044    -0.28900
N2112       N  0.30365756  0.96177370  0.16429137    -0.45500
C2113       C  0.28566687  0.94858530  0.16255743    -0.04800
C2114       C  0.26620294  0.96120525  0.16088061    -0.22200
H2115       H  0.24310635  0.00346862  0.15866495     0.19700
H2116       H  0.32641975  0.00172205  0.16600273     0.18400
H2117       H  0.32093339  0.04890598  0.16482148     0.14700
H2118       H  0.24942048  0.95520662  0.15918865     0.14600
H2119       H  0.25001920  0.04935871  0.15866832     0.32800
H2120       H  0.32023957  0.95677164  0.16560961     0.35500
C2121       C  0.36570699  0.10870278  0.94000841     0.21100
C2122       C  0.37064091  0.10816576  0.92209463    -0.38800
C2123       C  0.35306428  0.11413691  0.91087746     0.20100
C2124       C  0.33222699  0.11992393  0.91712525     0.22700
C2125       C  0.32735998  0.12047807  0.93492355    -0.39300
C2126       C  0.34488478  0.11480241  0.94606213     0.21500
N2127       N  0.37940606  0.10410565  0.95341110    -0.32600
C2128       C  0.36722699  0.10760536  0.96807641    -0.10100
C2129       C  0.34560358  0.11423141  0.96391330    -0.28900
N2130       N  0.31811251  0.12412054  0.90402429    -0.45500
C2131       C  0.32983307  0.12106975  0.88916636    -0.04800
C2132       C  0.35183255  0.11494275  0.89289628    -0.22200
H2133       H  0.38690850  0.10344364  0.91725827     0.19700
H2134       H  0.31105279  0.12505224  0.93976503     0.18400
H2135       H  0.33213175  0.11812898  0.97275565     0.14700
H2136       H  0.36485382  0.11075937  0.88372021     0.14600
H2137       H  0.39611987  0.09939133  0.95261201     0.32800
H2138       H  0.30126901  0.12825191  0.90512647     0.35500
C2139       C  0.34277235  0.12644951  0.05338586     0.21100
C2140       C  0.32301336  0.12584071  0.06302209    -0.38800
C2141       C  0.32508146  0.13037490  0.08082910     0.20100
C2142       C  0.34531642  0.13497772  0.08856912     0.22700
C2143       C  0.36513133  0.13556331  0.07890626    -0.39300
C2144       C  0.36301213  0.13121680  0.06101262     0.21500
N2145       N  0.34546266  0.12066917  0.03662720    -0.32600
C2146       C  0.36757977  0.12180423  0.03334940    -0.10100
C2147       C  0.37904007  0.12836007  0.04837108    -0.28900
N2148       N  0.34295785  0.13717813  0.10589813    -0.45500
C2149       C  0.32104922  0.13391423  0.10913617    -0.04800
C2150       C  0.30940830  0.12977157  0.09380807    -0.22200
H2151       H  0.30726879  0.12143664  0.05717643     0.19700
H2152       H  0.38110647  0.13845352  0.08495121     0.18400
H2153       H  0.39682767  0.12895474  0.05033585     0.14700
H2154       H  0.29194735  0.12591094  0.09243317     0.14600
H2155       H  0.33317426  0.11472210  0.02824645     0.32800
H2156       H  0.35553898  0.13998535  0.11498436     0.35500
C2157       C  0.63817776  0.12759997  0.95136491     0.21100
C2158       C  0.65805128  0.12635375  0.94194356    -0.38800
C2159       C  0.65640607  0.13171595  0.92435412     0.20100
C2160       C  0.63647654  0.13783498  0.91669286     0.22700
C2161       C  0.61660152  0.13921581  0.92615491    -0.39300
C2162       C  0.61827618  0.13389529  0.94378444     0.21500
N2163       N  0.63491306  0.12083150  0.96768464    -0.32600
C2164       C  0.61277724  0.12276091  0.97060689    -0.10100
C2165       C  0.60187464  0.13107653  0.95596443    -0.28900
N2166       N  0.63903882  0.14035194  0.89950955    -0.45500
C2167       C  0.66073308  0.13573397  0.89627750    -0.04800
C2168       C  0.67211987  0.13041894  0.91144367    -0.22200
H2169       H  0.67346484  0.12066367  0.94770539     0.19700
H2170       H  0.60085076  0.14318958  0.92008668     0.18400
H2171       H  0.58420090  0.13286048  0.95377842     0.14700
H2172       H  0.68933803  0.12533155  0.91271942     0.14600
H2173       H  0.64678249  0.11383323  0.97593564     0.32800
H2174       H  0.62666768  0.14417026  0.89047471     0.35500
C2175       C  0.63134573  0.12244532  0.05690728     0.21100
C2176       C  0.64907147  0.12995146  0.06712475    -0.38800
C2177       C  0.64565896  0.12943430  0.08507851     0.20100
C2178       C  0.62606104  0.12205720  0.09238025     0.22700
C2179       C  0.60829660  0.11444189  0.08211370    -0.39300
C2180       C  0.61175819  0.11488942  0.06408005     0.21500
N2181       N  0.63074045  0.12094752  0.03954430    -0.32600
C2182       C  0.61062754  0.11229103  0.03548904    -0.10100
C2183       C  0.59830890  0.10824418  0.05049400    -0.28900
N2184       N  0.62759044  0.12203756  0.10981092    -0.45500
C2185       C  0.64839511  0.12923668  0.11351737    -0.04800
C2186       C  0.66005468  0.13414553  0.09843329    -0.22200
H2187       H  0.66456437  0.13541078  0.06150376     0.19700
H2188       H  0.59310743  0.10822990  0.08774376     0.18400
H2189       H  0.58171617  0.10154847  0.05139535     0.14700
H2190       H  0.67719331  0.13931123  0.09735711     0.14600
H2191       H  0.64348240  0.12528673  0.03105724     0.32800
H2192       H  0.61571152  0.11635510  0.11856589     0.35500
C2193       C  0.50980662  0.09664972  0.00389795     0.21100
C2194       C  0.49090663  0.08317598  0.00309718    -0.38800
C2195       C  0.47076100  0.09434567  0.00001604     0.20100
C2196       C  0.46955517  0.11719135  0.99810108     0.22700
C2197       C  0.48848086  0.13056745  0.99854536    -0.39300
C2198       C  0.50859348  0.11939217  0.00145596     0.21500
N2199       N  0.53099741  0.09007025  0.00606497    -0.32600
C2200       C  0.54328499  0.10872100  0.00459346    -0.10100
C2201       C  0.52991140  0.12733363  0.00181600    -0.28900
N2202       N  0.44833912  0.12403089  0.99693198    -0.45500
C2203       C  0.43599618  0.10538714  0.99788654    -0.04800
C2204       C  0.44932641  0.08651285  0.99963213    -0.22200
H2205       H  0.49179127  0.06537374  0.00488721     0.19700
H2206       H  0.48758659  0.14839450  0.99690659     0.18400
H2207       H  0.53519537  0.14418147  0.99942373     0.14700
H2208       H  0.44394297  0.06963988  0.00179126     0.14600
H2209       H  0.53686109  0.07376030  0.00719260     0.32800
H2210       H  0.44254160  0.14041681  0.99639919     0.35500
C2211       C  0.64521469  0.87527916  0.91713295     0.21100
C2212       C  0.65013837  0.87383218  0.93488109    -0.38800
C2213       C  0.63272016  0.87927172  0.94626650     0.20100
C2214       C  0.61194432  0.88584606  0.94048901     0.22700
C2215       C  0.60692319  0.88714694  0.92265033    -0.39300
C2216       C  0.62439049  0.88153902  0.91119406     0.21500
N2217       N  0.65931117  0.87193113  0.90382889    -0.32600
C2218       C  0.64751575  0.87600750  0.88919814    -0.10100
C2219       C  0.62556147  0.88190472  0.89323975    -0.28900
N2220       N  0.59850959  0.89063202  0.95405105    -0.45500
C2221       C  0.61081444  0.88688643  0.96856056    -0.04800
C2222       C  0.63223590  0.87975840  0.96412830    -0.22200
H2223       H  0.66647133  0.86906999  0.93950279     0.19700
H2224       H  0.59074209  0.89241918  0.91803930     0.18400
H2225       H  0.61254254  0.88675295  0.88431434     0.14700
H2226       H  0.64581529  0.87574590  0.97278950     0.14600
H2227       H  0.67615543  0.86772235  0.90467789     0.32800
H2228       H  0.58194419  0.89587225  0.95342258     0.35500
C2229       C  0.63472574  0.86278418  0.08881987     0.21100
C2230       C  0.61482179  0.86207705  0.07932055    -0.38800
C2231       C  0.61678821  0.86574485  0.06141409     0.20100
C2232       C  0.63698800  0.86988991  0.05356827     0.22700
C2233       C  0.65689794  0.87052074  0.06305092    -0.39300
C2234       C  0.65495594  0.86680747  0.08093045     0.21500
N2235       N  0.63711295  0.86161310  0.10615214    -0.32600
C2236       C  0.65900253  0.86505405  0.10927841    -0.10100
C2237       C  0.67066975  0.86817932  0.09387152    -0.28900
N2238       N  0.63407433  0.87535662  0.03683538    -0.45500
C2239       C  0.61185780  0.87457621  0.03384149    -0.04800
C2240       C  0.60058796  0.86866446  0.04899998    -0.22200
H2241       H  0.59886705  0.85979041  0.08551677     0.19700
H2242       H  0.67261418  0.87457976  0.05707405     0.18400
H2243       H  0.68812852  0.87196121  0.09241124     0.14700
H2244       H  0.58283589  0.86853546  0.05120283     0.14600
H2245       H  0.62452704  0.85950100  0.11531294     0.32800
H2246       H  0.64630299  0.88085756  0.02830382     0.35500
C2247       C  0.58447770  0.97823848  0.99503637     0.21100
C2248       C  0.58340664  0.99674964  0.98411570    -0.38800
C2249       C  0.58545776  0.01751188  0.99236850     0.20100
C2250       C  0.58790944  0.01970501  0.01016715     0.22700
C2251       C  0.58896060  0.00121668  0.02107201    -0.39300
C2252       C  0.58732500  0.98046426  0.01278494     0.21500
N2253       N  0.58467109  0.95668489  0.99027994    -0.32600
C2254       C  0.58804432  0.94511861  0.00508430    -0.10100
C2255       C  0.58954754  0.95943902  0.01939849    -0.28900
N2256       N  0.59030850  0.04114276  0.01474901    -0.45500
C2257       C  0.58978636  0.05263472  0.99972960    -0.04800
C2258       C  0.58669696  0.03849352  0.98549458    -0.22200
H2259       H  0.58189773  0.99508130  0.97017000     0.19700
H2260       H  0.59160779  0.00284016  0.03491724     0.18400
H2261       H  0.59246819  0.95516087  0.03281614     0.14700
H2262       H  0.58573679  0.04294831  0.97193925     0.14600
H2263       H  0.58365661  0.95037947  0.97764035     0.32800
H2264       H  0.59290231  0.04748093  0.02724310     0.35500
C2265       C  0.32291184  0.86099712  0.92061357     0.21100
C2266       C  0.31980398  0.86348032  0.93859403    -0.38800
C2267       C  0.33930271  0.86478433  0.94855446     0.20100
C2268       C  0.36022936  0.86373119  0.94114838     0.22700
C2269       C  0.36332907  0.86120410  0.92321072    -0.39300
C2270       C  0.34389217  0.85982985  0.91326658     0.21500
N2271       N  0.30719374  0.86124233  0.90820939    -0.32600
C2272       C  0.31830028  0.86026508  0.89289947    -0.10100
C2273       C  0.34119135  0.85916796  0.89553141    -0.28900
N2274       N  0.37597885  0.86782431  0.95305327    -0.45500
C2275       C  0.36515558  0.87134646  0.96829093    -0.04800
C2276       C  0.34217755  0.86972881  0.96590146    -0.22200
H2277       H  0.30344773  0.86525333  0.94431417     0.19700
H2278       H  0.37968151  0.86123276  0.91735457     0.18400
H2279       H  0.35412792  0.85907767  0.88577292     0.14700
H2280       H  0.32926801  0.87349477  0.97527752     0.14600
H2281       H  0.29004389  0.86284161  0.91002021     0.32800
H2282       H  0.39290115  0.86982907  0.95056427     0.35500
C2283       C  0.34830828  0.87725117  0.08995149     0.21100
C2284       C  0.36674534  0.88384662  0.08006656    -0.38800
C2285       C  0.36427720  0.88211227  0.06196129     0.20100
C2286       C  0.34497995  0.87427063  0.05439253     0.22700
C2287       C  0.32656174  0.86782374  0.06422785    -0.39300
C2288       C  0.32896863  0.86967285  0.08225535     0.21500
N2289       N  0.34598989  0.87824628  0.10731458    -0.32600
C2290       C  0.32495075  0.87149280  0.11061779    -0.10100
C2291       C  0.31387599  0.86592681  0.09531059    -0.28900
N2292       N  0.34650873  0.87455835  0.03704268    -0.45500
C2293       C  0.36689682  0.88276783  0.03336482    -0.04800
C2294       C  0.37850249  0.88770503  0.04862632    -0.22200
H2295       H  0.38172930  0.89021445  0.08601565     0.19700
H2296       H  0.31131520  0.86213879  0.05825533     0.18400
H2297       H  0.29681487  0.86061647  0.09389096     0.14700
H2298       H  0.39503929  0.89448559  0.04985065     0.14600
H2299       H  0.35765486  0.88401600  0.11629616     0.32800
H2300       H  0.33407050  0.86993860  0.02830553     0.35500
C2301       C  0.38746204  0.97558851  0.00889191     0.21100
C2302       C  0.38914651  0.99422846  0.01989835    -0.38800
C2303       C  0.38872919  0.01494419  0.01163700     0.20100
C2304       C  0.38693539  0.01694943  0.99380543     0.22700
C2305       C  0.38493827  0.99835174  0.98286595    -0.39300
C2306       C  0.38523368  0.97769052  0.99112083     0.21500
N2307       N  0.38761463  0.95403182  0.01338166    -0.32600
C2308       C  0.38527505  0.94235263  0.99837750    -0.10100
C2309       C  0.38370384  0.95662415  0.98425365    -0.28900
N2310       N  0.38681285  0.03842497  0.98915580    -0.45500
C2311       C  0.38816272  0.05021131  0.00416487    -0.04800
C2312       C  0.38946004  0.03614303  0.01845644    -0.22200
H2313       H  0.39061663  0.99273820  0.03383895     0.19700
H2314       H  0.38325710  0.99985657  0.96894182     0.18400
H2315       H  0.38197550  0.95222351  0.97068523     0.14700
H2316       H  0.39054011  0.04080214  0.03202474     0.14600
H2317       H  0.38892518  0.94770317  0.02592493     0.32800
H2318       H  0.38511750  0.04466891  0.97661886     0.35500
C2319       C  0.50850021  0.89806083  0.00368538     0.21100
C2320       C  0.48893927  0.90895861  0.00901096    -0.38800
C2321       C  0.46922186  0.89714320  0.00640608     0.20100
C2322       C  0.46902505  0.87615946  0.99891407     0.22700
C2323       C  0.48863284  0.86510660  0.99381295    -0.39300
C2324       C  0.50838213  0.87684997  0.99656962     0.21500
N2325       N  0.52936543  0.90552554  0.00521498    -0.32600
C2326       C  0.54261409  0.88885442  0.99928492    -0.10100
C2327       C  0.53022259  0.87064292  0.99380187    -0.28900
N2328       N  0.44806976  0.86920489  0.99663859    -0.45500
C2329       C  0.43480903  0.88591247  0.00268450    -0.04800
C2330       C  0.44742966  0.90347375  0.00914406    -0.22200
H2331       H  0.48905273  0.92550058  0.01463641     0.19700
H2332       H  0.48849910  0.84865000  0.98803384     0.18400
H2333       H  0.53640500  0.85475466  0.98912065     0.14700
H2334       H  0.44148635  0.91940864  0.01391959     0.14600
H2335       H  0.53440370  0.92055493  0.01078920     0.32800
H2336       H  0.44316005  0.85435875  0.99071825     0.35500
loop_ 
_geom_bond_atom_site_label_1 
_geom_bond_atom_site_label_2 
_geom_bond_distance 
_geom_bond_site_symmetry_2 
_ccdc_geom_bond_type 
C1            C2   1.533       .  S
C1            C7   1.530       .  S
C1            C5   1.531   1_556  S
C1         C2275   1.509       .  S
C2            H9   1.084       .  S
C2            C3   1.365       .  D
C3            C4   1.544   1_556  S
C3         C2329   1.478   1_556  S
C4            C8   1.542   1_554  S
C4            C6   1.547       .  S
C4           H10   1.109       .  S
C5           H11   1.085       .  S
C5            C6   1.369       .  D
C6         C2293   1.484       .  S
C7           H12   1.086       .  S
C7            C8   1.365       .  D
C8         C2308   1.483       .  S
C13          C14   1.536       .  S
C13          C19   1.531       .  S
C13          C17   1.537       .  S
C13        C2239   1.515       .  S
C14          H21   1.085       .  S
C14          C15   1.362       .  D
C15          C16   1.535   1_554  S
C15        C2326   1.466   1_554  S
C16          C20   1.540   1_556  S
C16          C18   1.546       .  S
C16          H22   1.109       .  S
C17          H23   1.085   1_554  S
C17          C18   1.373   1_554  D
C18        C2221   1.490       .  S
C19          H24   1.086       .  S
C19          C20   1.365       .  D
C20        C2254   1.482       .  S
C25          C26   1.532       .  S
C25          C31   1.534       .  S
C25          C29   1.532   1_556  S
C25        C2164   1.505       .  S
C26          H33   1.084       .  S
C26          C27   1.362   1_556  D
C27          C28   1.535       .  S
C27        C2200   1.466       .  S
C28          C32   1.536   1_554  S
C28          C30   1.545       .  S
C28          H34   1.110       .  S
C29          H35   1.085       .  S
C29          C30   1.369       .  D
C30        C2182   1.483       .  S
C31          H36   1.086       .  S
C31          C32   1.363       .  D
C32        C2257   1.475       .  S
C37          C38   1.535       .  S
C37          C43   1.532       .  S
C37          C41   1.539       .  S
C37        C2146   1.515       .  S
C38          H45   1.085       .  S
C38          C39   1.364       .  D
C39          C40   1.537   1_554  S
C39        C2203   1.466   1_554  S
C40          C44   1.538   1_556  S
C40          C42   1.544       .  S
C40          H46   1.110       .  S
C41          H47   1.085   1_554  S
C41          C42   1.374   1_554  D
C42        C2128   1.491       .  S
C43          H48   1.086       .  S
C43          C44   1.362       .  D
C44        C2311   1.477       .  S
O49          C52   1.266       .  A
O49         Cd54   2.493       .  S
C50          O59   1.262       .  A
C50          O55   1.267       .  A
C50        C2092   1.470       .  S
O51          C57   1.267       .  A
O51         Cd54   2.488       .  S
C52          O60   1.264       .  A
C52        C2290   1.473       .  S
C53          O58   1.267       .  A
C53          O56   1.265       .  A
C53        C2077   1.471       .  S
Cd54         O61   2.434       .  S
Cd54         O60   2.464       .  S
Cd54         O59   2.426       .  S
Cd54         O55   2.508       .  S
Cd54         O58   2.497       .  S
Cd54         O56   2.432       .  S
C57          O61   1.263       .  A
C57        C2113   1.468       .  S
O62          C65   1.265       .  A
O62         Cd67   2.460       .  S
C63          O72   1.263       .  A
C63          O68   1.267       .  A
C63        C2149   1.476       .  S
O64          C70   1.268       .  A
O64         Cd67   2.509       .  S
C65          O73   1.268       .  A
C65        C2059   1.471       .  S
C66          O71   1.267       .  A
C66          O69   1.264       .  A
C66        C2038   1.472       .  S
Cd67         O74   2.412       .  S
Cd67         O73   2.474       .  S
Cd67         O72   2.450       .  S
Cd67         O68   2.513       .  S
Cd67         O71   2.492       .  S
Cd67         O69   2.445       .  S
C70          O74   1.263       .  A
C70        C2110   1.470       .  S
O75          C78   1.268       .  A
O75         Cd80   2.495       .  S
C76          O85   1.264       .  A
C76          O81   1.267       .  A
C76        C1984   1.471       .  S
O77          C83   1.268       .  A
O77         Cd80   2.507       .  S
C78          O86   1.264       .  A
C78        C2023   1.472       .  S
C79          O84   1.269       .  A
C79          O82   1.264       .  A
C79        C2005   1.474       .  S
Cd80         O87   2.439       .  S
Cd80         O86   2.445       .  S
Cd80         O85   2.461       .  S
Cd80         O81   2.483       .  S
Cd80         O84   2.503       .  S
Cd80         O82   2.438       .  S
C83          O87   1.263       .  A
C83        C1966   1.473       .  S
O88          C91   1.268       .  A
O88         Cd93   2.504       .  S
C89          O98   1.262       .  A
C89          O94   1.267       .  A
C89        C1951   1.473       .  S
O90          C96   1.267       .  A
O90         Cd93   2.472       .  S
C91          O99   1.262       .  A
C91        C2095   1.473       .  S
C92          O97   1.266       .  A
C92          O95   1.265       .  A
C92        C2002   1.470       .  S
Cd93        O100   2.438       .  S
Cd93         O99   2.450       .  S
Cd93         O98   2.451       .  S
Cd93         O94   2.508       .  S
Cd93         O97   2.488       .  S
Cd93         O95   2.439       .  S
C96         O100   1.266       .  A
C96        C1930   1.468       .  S
O101        C104   1.267       .  A
O101       Cd106   2.478       .  S
C102        O111   1.264       .  A
C102        O107   1.268       .  A
C102       C2236   1.471       .  S
O103        C109   1.268       .  A
O103       Cd106   2.480       .  S
C104        O112   1.264       .  A
C104       C1987   1.468       .  S
C105        O110   1.268       .  A
C105        O108   1.263       .  A
C105       C1894   1.467       .  S
Cd106       O113   2.406       .  S
Cd106       O112   2.434       .  S
Cd106       O111   2.441       .  S
Cd106       O107   2.485       .  S
Cd106       O110   2.497       .  S
Cd106       O108   2.404       .  S
C109        O113   1.264       .  A
C109       C1912   1.464       .  S
O114        C117   1.267       .  A
O114       Cd119   2.485       .  S
C115        O124   1.263       .  A
C115        O120   1.266       .  A
C115       C2185   1.470       .  S
O116        C122   1.267       .  A
O116       Cd119   2.485       .  S
C117        O125   1.263       .  A
C117       C1876   1.470       .  S
C118        O123   1.267       .  A
C118        O121   1.263       .  A
C118       C1915   1.464       .  S
Cd119       O126   2.431       .  S
Cd119       O125   2.453       .  S
Cd119       O124   2.439       .  S
Cd119       O120   2.495       .  S
Cd119       O123   2.479       .  S
Cd119       O121   2.421       .  S
C122        O126   1.266       .  A
C122       C1858   1.469       .  S
O127        C130   1.267       .  A
O127       Cd132   2.482       .  S
C128        O137   1.265       .  A
C128        O133   1.266       .  A
C128       C2056   1.470       .  S
O129        C135   1.267       .  A
O129       Cd132   2.504       .  S
C130        O138   1.263       .  A
C130       C1840   1.467       .  S
C131        O136   1.269       .  A
C131        O134   1.263       .  A
C131       C1822   1.465       .  S
Cd132       O139   2.423       .  S
Cd132       O138   2.432       .  S
Cd132       O137   2.455       .  S
Cd132       O133   2.473       .  S
Cd132       O136   2.486       .  S
Cd132       O134   2.411       .  S
C135        O139   1.263       .  A
C135       C1804   1.468       .  S
O140        C143   1.269       .  A
O140       Cd145   2.497       .  S
C141        O150   1.263       .  A
C141        O146   1.268       .  A
C141       C1786   1.475       .  S
O142        C148   1.267       .  A
O142       Cd145   2.469       .  S
C143        O151   1.263       .  A
C143       C1879   1.471       .  S
C144        O149   1.266       .  A
C144        O147   1.264       .  A
C144       C1825   1.465       .  S
Cd145       O152   2.440       .  S
Cd145       O151   2.434       .  S
Cd145       O150   2.448       .  S
Cd145       O146   2.510       .  S
Cd145       O149   2.465       .  S
Cd145       O147   2.441       .  S
C148        O152   1.266       .  A
C148       C1768   1.468       .  S
C153        C154   1.537       .  S
C153        C159   1.534       .  S
C153        C157   1.536       .  S
C153       C2020   1.514       .  S
C154        H161   1.083       .  S
C154        C155   1.365       .  D
C155        C156   1.541       .  S
C155       C1732   1.477       .  S
C156        C160   1.539       .  S
C156        C158   1.540       .  S
C156        H162   1.108       .  S
C157        H163   1.085       .  S
C157        C158   1.369       .  D
C158       C1714   1.486       .  S
C159        H164   1.086       .  S
C159        C160   1.363       .  D
C160       C1750   1.476       .  S
C165        C166   1.536       .  S
C165        C171   1.535       .  S
C165        C169   1.537       .  S
C165       C1678   1.510       .  S
C166        H173   1.084       .  S
C166        C167   1.363       .  D
C167        C168   1.536       .  S
C167       C1696   1.469       .  S
C168        C172   1.537       .  S
C168        C170   1.540       .  S
C168        H174   1.108       .  S
C169        H175   1.085       .  S
C169        C170   1.370       .  D
C170       C1948   1.487       .  S
C171        H176   1.086       .  S
C171        C172   1.363       .  D
C172       C1753   1.474       .  S
C177        C178   1.537       .  S
C177        C183   1.534       .  S
C177        C181   1.540       .  S
C177       C1642   1.519       .  S
C178        H185   1.083       .  S
C178        C179   1.364       .  D
C179        C180   1.539       .  S
C179       C1735   1.477       .  S
C180        C184   1.542       .  S
C180        C182   1.539       .  S
C180        H186   1.109       .  S
C181        H187   1.085       .  S
C181        C182   1.371       .  D
C182       C1789   1.486       .  S
C183        H188   1.086       .  S
C183        C184   1.366       .  D
C184       C1660   1.483       .  S
C189        C190   1.534       .  S
C189        C195   1.534       .  S
C189        C193   1.539       .  S
C189       C1843   1.514       .  S
C190        H197   1.082       .  S
C190        C191   1.363       .  D
C191        C192   1.539       .  S
C191       C1699   1.475       .  S
C192        C196   1.540       .  S
C192        C194   1.542       .  S
C192        H198   1.107       .  S
C193        H199   1.085       .  S
C193        C194   1.372       .  D
C194       C1624   1.489       .  S
C195        H200   1.086       .  S
C195        C196   1.363       .  D
C196       C1663   1.481       .  S
O201        C204   1.268       .  A
O201       Cd206   2.501       .  S
C202        O211   1.264       .  A
C202        O207   1.267       .  A
C202       C2272   1.470       .  S
O203        C209   1.268       .  A
O203       Cd206   2.493       .  S
C204        O212   1.265       .  A
C204       C1588   1.474       .  S
C205        O210   1.268       .  A
C205        O208   1.264       .  A
C205       C1570   1.472       .  S
Cd206       O213   2.443       .  S
Cd206       O212   2.448       .  S
Cd206       O211   2.466       .  S
Cd206       O207   2.473       .  S
Cd206       O210   2.503       .  S
Cd206       O208   2.435       .  S
C209        O213   1.264       .  A
C209       C1609   1.471       .  S
O214        C217   1.269       .  A
O214       Cd219   2.503       .  S
C215        O224   1.263       .  A
C215        O220   1.266       .  A
C215       C2131   1.483       .  S
O216        C222   1.266       .  A
O216       Cd219   2.483       .  S
C217        O225   1.264       .  A
C217       C1552   1.476       .  S
C218        O223   1.266       .  A
C218        O221   1.263       .  A
C218       C1606   1.468       .  S
Cd219       O226   2.452       .  S
Cd219       O225   2.455       .  S
Cd219       O224   2.476       .  S
Cd219       O220   2.534       .  S
Cd219       O223   2.497       .  S
Cd219       O221   2.420       .  S
C222        O226   1.266       .  A
C222       C1534   1.470       .  S
O227        C230   1.267       .  A
O227       Cd232   2.498       .  S
C228        O237   1.265       .  A
C228        O233   1.263       .  A
C228       C1627   1.476       .  S
O229        C235   1.266       .  A
O229       Cd232   2.487       .  S
C230        O238   1.263       .  A
C230       C1555   1.472       .  S
C231        O236   1.267       .  A
C231        O234   1.264       .  A
C231       C1516   1.474       .  S
Cd232       O239   2.453       .  S
Cd232       O238   2.443       .  S
Cd232       O237   2.512       .  S
Cd232       O233   2.470       .  S
Cd232       O236   2.517       .  S
Cd232       O234   2.439       .  S
C235        O239   1.264       .  A
C235       C1501   1.471       .  S
O240        C243   1.269       .  A
O240       Cd245   2.491       .  S
C241        O250   1.264       .  A
C241        O246   1.268       .  A
C241       C1645   1.478       .  S
O242        C248   1.268       .  A
O242       Cd245   2.502       .  S
C243        O251   1.265       .  A
C243       C1480   1.474       .  S
C244        O249   1.268       .  A
C244        O247   1.264       .  A
C244       C1462   1.473       .  S
Cd245       O252   2.431       .  S
Cd245       O251   2.455       .  S
Cd245       O250   2.458       .  S
Cd245       O246   2.515       .  S
Cd245       O249   2.501       .  S
Cd245       O247   2.439       .  S
C248        O252   1.264       .  A
C248       C1519   1.472       .  S
O253        C256   1.269       .  A
O253       Cd258   2.488       .  S
C254        O263   1.264       .  A
C254        O259   1.269       .  A
C254       C1681   1.471       .  S
O255        C261   1.269       .  A
O255       Cd258   2.468       .  S
C256        O264   1.265       .  A
C256       C1591   1.474       .  S
C257        O262   1.269       .  A
C257        O260   1.263       .  A
C257       C1426   1.468       .  S
Cd258       O265   2.425       .  S
Cd258       O264   2.454       .  S
Cd258       O263   2.432       .  S
Cd258       O259   2.492       .  S
Cd258       O262   2.508       .  S
Cd258       O260   2.406       .  S
C261        O265   1.265       .  A
C261       C1444   1.467       .  S
O266        C269   1.268       .  A
O266       Cd271   2.494       .  S
C267        O276   1.263       .  A
C267        O272   1.266       .  A
C267       C1717   1.474       .  S
O268        C274   1.268       .  A
O268       Cd271   2.483       .  S
C269        O277   1.263       .  A
C269       C1408   1.473       .  S
C270        O275   1.267       .  A
C270        O273   1.263       .  A
C270       C1447   1.468       .  S
Cd271       O278   2.449       .  S
Cd271       O277   2.456       .  S
Cd271       O276   2.457       .  S
Cd271       O272   2.505       .  S
Cd271       O275   2.482       .  S
Cd271       O273   2.445       .  S
C274        O278   1.266       .  A
C274       C1390   1.472       .  S
O279        C282   1.268       .  A
O279       Cd284   2.492       .  S
C280        O289   1.264       .  A
C280        O285   1.267       .  A
C280       C2218   1.479       .  S
O281        C287   1.267       .  A
O281       Cd284   2.482       .  S
C282        O290   1.263       .  A
C282       C1411   1.472       .  S
C283        O288   1.266       .  A
C283        O286   1.263       .  A
C283       C1372   1.463       .  S
Cd284       O291   2.436       .  S
Cd284       O290   2.452       .  S
Cd284       O289   2.469       .  S
Cd284       O285   2.508       .  S
Cd284       O288   2.476       .  S
Cd284       O286   2.418       .  S
C287        O291   1.266       .  A
C287       C1354   1.470       .  S
O292        C295   1.267       .  A
O292       Cd297   2.496       .  S
C293        O302   1.265       .  A
C293        O298   1.268       .  A
C293       C2167   1.466       .  S
O294        C300   1.269       .  A
O294       Cd297   2.479       .  S
C295        O303   1.263       .  A
C295       C1483   1.469       .  S
C296        O301   1.268       .  A
C296        O299   1.263       .  A
C296       C1336   1.464       .  S
Cd297       O304   2.418       .  S
Cd297       O303   2.424       .  S
Cd297       O302   2.437       .  S
Cd297       O298   2.464       .  S
Cd297       O301   2.493       .  S
Cd297       O299   2.403       .  S
C300        O304   1.264       .  A
C300       C1375   1.465       .  S
C305        C306   1.540       .  S
C305        C311   1.534       .  S
C305        C309   1.537       .  S
C305       C1264   1.519       .  S
C306        H313   1.083       .  S
C306        C307   1.370       .  D
C307        C308   1.545   1_556  S
C307       C1318   1.486       .  S
C308        C312   1.538   1_554  S
C308        C310   1.546       .  S
C308        H314   1.108       .  S
C309        H315   1.085       .  S
C309        C310   1.369   1_556  D
C310       C1282   1.491       .  S
C311        H316   1.087       .  S
C311        C312   1.363       .  D
C312       C1303   1.480       .  S
C317        C318   1.539       .  S
C317        C323   1.532       .  S
C317        C321   1.535       .  S
C317       C1231   1.512       .  S
C318        H325   1.084       .  S
C318        C319   1.367       .  D
C319        C320   1.537   1_554  S
C319       C1321   1.476       .  S
C320        C324   1.541   1_556  S
C320        C322   1.539       .  S
C320        H326   1.110       .  S
C321        H327   1.086       .  S
C321        C322   1.366   1_554  D
C322       C1210   1.479       .  S
C323        H328   1.086       .  S
C323        C324   1.365       .  D
C324       C1246   1.478       .  S
C329        C330   1.540       .  S
C329        C335   1.532       .  S
C329        C333   1.537       .  S
C329       C1156   1.519       .  S
C330        H337   1.083       .  S
C330        C331   1.367       .  D
C331        C332   1.539   1_556  S
C331       C1195   1.480       .  S
C332        C336   1.542   1_554  S
C332        C334   1.542       .  S
C332        H338   1.109       .  S
C333        H339   1.086       .  S
C333        C334   1.370   1_556  D
C334       C1174   1.487       .  S
C335        H340   1.086       .  S
C335        C336   1.364       .  D
C336       C1249   1.479       .  S
C341        C342   1.534       .  S
C341        C347   1.529       .  S
C341        C345   1.532       .  S
C341       C1141   1.512       .  S
C342        H349   1.082       .  S
C342        C343   1.364       .  D
C343        C344   1.548   1_554  S
C343       C1192   1.486       .  S
C344        C348   1.548   1_556  S
C344        C346   1.552       .  S
C344        H350   1.107       .  S
C345        H351   1.085       .  S
C345        C346   1.371   1_554  D
C346       C1120   1.494       .  S
C347        H352   1.086       .  S
C347        C348   1.364       .  D
C348       C1300   1.488       .  S
O353        C356   1.267       .  A
O353       Cd358   2.470       .  S
C354        O363   1.264       .  A
C354        O359   1.268       .  A
C354       C1102   1.469       .  S
O355        C361   1.270       .  A
O355       Cd358   2.494       .  S
C356        O364   1.265       .  A
C356       C1066   1.470       .  S
C357        O362   1.268       .  A
C357        O360   1.264       .  A
C357       C1771   1.472       .  S
Cd358       O365   2.422       .  S
Cd358       O364   2.463       .  S
Cd358       O363   2.430       .  S
Cd358       O359   2.487       .  S
Cd358       O362   2.499       .  S
Cd358       O360   2.439       .  S
C361        O365   1.264       .  A
C361       C1087   1.470       .  S
O366        C369   1.266       .  A
O366       Cd371   2.515       .  S
C367        O376   1.263       .  A
C367        O372   1.269       .  A
C367       C1030   1.478       .  S
O368        C374   1.268       .  A
O368       Cd371   2.492       .  S
C369        O377   1.262       .  A
C369       C1048   1.475       .  S
C370        O375   1.268       .  A
C370        O373   1.266       .  A
C370       C1969   1.472       .  S
Cd371       O378   2.424       .  S
Cd371       O377   2.453       .  S
Cd371       O376   2.463       .  S
Cd371       O372   2.512       .  S
Cd371       O375   2.483       .  S
Cd371       O373   2.445       .  S
C374        O378   1.263       .  A
C374       C1084   1.468       .  S
O379        C382   1.269       .  A
O379       Cd384   2.541       .  S
C380        O389   1.268       .  A
C380        O385   1.263       .  A
C380       C1285   1.475       .  S
O381        C387   1.266       .  A
O381       Cd384   2.467       .  S
C382        O390   1.263       .  A
C382       C1033   1.481       .  S
C383        O388   1.266       .  A
C383        O386   1.264       .  A
C383       C1012   1.474       .  S
Cd384       O391   2.473       .  S
Cd384       O390   2.453       .  S
Cd384       O389   2.499       .  S
Cd384       O385   2.461       .  S
Cd384       O388   2.492       .  S
Cd384       O386   2.465       .  S
C387        O391   1.267       .  A
C387       C1897   1.472       .  S
O392        C395   1.267       .  A
O392       Cd397   2.463       .  S
C393        O402   1.264       .  A
C393        O398   1.266       .  A
C393        C994   1.469       .  S
O394        C400   1.269       .  A
O394       Cd397   2.512       .  S
C395        O403   1.265       .  A
C395       C1138   1.465       .  S
C396        O401   1.270       .  A
C396        O399   1.264       .  A
C396       C1015   1.477       .  S
Cd397       O404   2.434       .  S
Cd397       O403   2.432       .  S
Cd397       O402   2.452       .  S
Cd397       O398   2.475       .  S
Cd397       O401   2.510       .  S
Cd397       O399   2.445       .  S
C400        O404   1.263       .  A
C400       C2074   1.473       .  S
O405        C408   1.267       .  A
O405       Cd410   2.518       .  S
C406        O415   1.268       .  A
C406        O411   1.264       .  A
C406        C943   1.476       .  S
O407        C413   1.266       .  A
O407       Cd410   2.486       .  S
C408        O416   1.262       .  A
C408        C976   1.473       .  S
C409        O414   1.267       .  A
C409        O412   1.265       .  A
C409       C1807   1.467       .  S
Cd410       O417   2.454       .  S
Cd410       O416   2.440       .  S
Cd410       O415   2.500       .  S
Cd410       O411   2.461       .  S
Cd410       O414   2.485       .  S
Cd410       O412   2.423       .  S
C413        O417   1.265       .  A
C413        C961   1.472       .  S
O418        C421   1.267       .  A
O418       Cd423   2.485       .  S
C419        O428   1.264       .  A
C419        O424   1.267       .  A
C419        C922   1.470       .  S
O420        C426   1.269       .  A
O420       Cd423   2.498       .  S
C421        O429   1.265       .  A
C421        C997   1.471       .  S
C422        O427   1.268       .  A
C422        O425   1.262       .  A
C422       C1933   1.471       .  S
Cd423       O430   2.428       .  S
Cd423       O429   2.452       .  S
Cd423       O428   2.447       .  S
Cd423       O424   2.479       .  S
Cd423       O427   2.514       .  S
Cd423       O425   2.419       .  S
C426        O430   1.264       .  A
C426        C958   1.471       .  S
O431        C434   1.267       .  A
O431       Cd436   2.467       .  S
C432        O441   1.265       .  A
C432        O437   1.267       .  A
C432       C1069   1.467       .  S
O433        C439   1.268       .  A
O433       Cd436   2.497       .  S
C434        O442   1.264       .  A
C434       C1228   1.467       .  S
C435        O440   1.269       .  A
C435        O438   1.263       .  A
C435        C904   1.464       .  S
Cd436       O443   2.427       .  S
Cd436       O442   2.445       .  S
Cd436       O441   2.446       .  S
Cd436       O437   2.467       .  S
Cd436       O440   2.474       .  S
Cd436       O438   2.419       .  S
C439        O443   1.264       .  A
C439       C1861   1.470       .  S
O444        C447   1.269       .  A
O444       Cd449   2.507       .  S
C445        O454   1.263       .  A
C445        O450   1.268       .  A
C445       C1177   1.477       .  S
O446        C452   1.268       .  A
O446       Cd449   2.477       .  S
C447        O455   1.263       .  A
C447        C940   1.476       .  S
C448        O453   1.267       .  A
C448        O451   1.264       .  A
C448        C907   1.467       .  S
Cd449       O456   2.454       .  S
Cd449       O455   2.452       .  S
Cd449       O454   2.456       .  S
Cd449       O450   2.516       .  S
Cd449       O453   2.484       .  S
Cd449       O451   2.427       .  S
C452        O456   1.266       .  A
C452       C2041   1.471       .  S
C457        C458   1.533       .  S
C457        C463   1.534       .  S
C457        C461   1.534       .  S
C457       C1105   1.511       .  S
C458        H465   1.083       .  S
C458        C459   1.362       .  D
C459        C460   1.539       .  S
C459        C871   1.473       .  S
C460        C464   1.539       .  S
C460        C462   1.545       .  S
C460        H466   1.109       .  S
C461        H467   1.085       .  S
C461        C462   1.370       .  D
C462        C850   1.487       .  S
C463        H468   1.086       .  S
C463        C464   1.364       .  D
C464        C889   1.477       .  S
C469        C470   1.536       .  S
C469        C475   1.529       .  S
C469        C473   1.534       .  S
C469        C814   1.513       .  S
C470        H477   1.084       .  S
C470        C471   1.366       .  D
C471        C472   1.543       .  S
C471        C832   1.481       .  S
C472        C476   1.540       .  S
C472        C474   1.546       .  S
C472        H478   1.109       .  S
C473        H479   1.084       .  S
C473        C474   1.372       .  D
C474       C1051   1.490       .  S
C475        H480   1.087       .  S
C475        C476   1.362       .  D
C476        C886   1.473       .  S
C481        C482   1.539       .  S
C481        C487   1.535       .  S
C481        C485   1.534       .  S
C481        C925   1.515       .  S
C482        H489   1.083       .  S
C482        C483   1.365       .  D
C483        C484   1.539       .  S
C483        C835   1.479       .  S
C484        C488   1.540       .  S
C484        C486   1.543       .  S
C484        H490   1.109       .  S
C485        H491   1.085       .  S
C485        C486   1.369       .  D
C486        C778   1.485       .  S
C487        H492   1.086       .  S
C487        C488   1.365       .  D
C488        C796   1.479       .  S
C493        C494   1.533       .  S
C493        C499   1.535       .  S
C493        C497   1.531       .  S
C493        C763   1.512       .  S
C494        H501   1.083       .  S
C494        C495   1.362       .  D
C495        C496   1.539       .  S
C495        C868   1.471       .  S
C496        C500   1.543       .  S
C496        C498   1.541       .  S
C496        H502   1.109       .  S
C497        H503   1.085       .  S
C497        C498   1.369       .  D
C498        C979   1.483       .  S
C499        H504   1.086       .  S
C499        C500   1.367       .  D
C500        C799   1.482       .  S
O505        C508   1.263       .  A
O505       Cd510   2.450       .  S
C506        O515   1.268       .  A
C506        O511   1.263       .  A
C506        C724   1.477       .  S
O507        C513   1.265       .  A
O507       Cd510   2.435       .  S
C508        O516   1.268       .  A
C508       C1213   1.472       .  S
C509        O514   1.265       .  A
C509        O512   1.265       .  A
C509       C1339   1.464       .  S
Cd510       O517   2.456       .  S
Cd510       O516   2.493       .  S
Cd510       O515   2.506       .  S
Cd510       O511   2.459       .  S
Cd510       O514   2.461       .  S
Cd510       O512   2.443       .  S
C513        O517   1.266       .  A
C513        C742   1.463       .  S
O518        C521   1.266       .  A
O518       Cd523   2.465       .  S
C519        O528   1.264       .  A
C519        O524   1.268       .  A
C519       C1159   1.472       .  S
O520        C526   1.263       .  A
O520       Cd523   2.388       .  S
C521        O529   1.267       .  A
C521        C706   1.470       .  S
C522        O527   1.268       .  A
C522        O525   1.264       .  A
C522       C1537   1.467       .  S
Cd523       O530   2.490       .  S
Cd523       O529   2.461       .  S
Cd523       O528   2.449       .  S
Cd523       O524   2.485       .  S
Cd523       O527   2.487       .  S
Cd523       O525   2.423       .  S
C526        O530   1.269       .  A
C526        C745   1.463       .  S
O531        C534   1.267       .  A
O531       Cd536   2.473       .  S
C532        O541   1.265       .  A
C532        O537   1.267       .  A
C532        C709   1.470       .  S
O533        C539   1.268       .  A
O533       Cd536   2.480       .  S
C534        O542   1.264       .  A
C534        C760   1.469       .  S
C535        O540   1.268       .  A
C535        O538   1.264       .  A
C535        C688   1.468       .  S
Cd536       O543   2.427       .  S
Cd536       O542   2.449       .  S
Cd536       O541   2.451       .  S
Cd536       O537   2.477       .  S
Cd536       O540   2.491       .  S
Cd536       O538   2.418       .  S
C539        O543   1.263       .  A
C539       C1498   1.467       .  S
O544        C547   1.268       .  A
O544       Cd549   2.498       .  S
C545        O554   1.262       .  A
C545        O550   1.268       .  A
C545        C670   1.472       .  S
O546        C552   1.266       .  A
O546       Cd549   2.474       .  S
C547        O555   1.263       .  A
C547        C781   1.471       .  S
C548        O553   1.267       .  A
C548        O551   1.267       .  A
C548       C1429   1.467       .  S
Cd549       O556   2.433       .  S
Cd549       O555   2.438       .  S
Cd549       O554   2.436       .  S
Cd549       O550   2.505       .  S
Cd549       O553   2.461       .  S
Cd549       O551   2.439       .  S
C552        O556   1.264       .  A
C552        C691   1.465       .  S
O557        C560   1.268       .  A
O557       Cd562   2.487       .  S
C558        O567   1.265       .  A
C558        O563   1.268       .  A
C558        C817   1.470       .  S
O559        C565   1.269       .  A
O559       Cd562   2.480       .  S
C560        O568   1.265       .  A
C560        C634   1.474       .  S
C561        O566   1.268       .  A
C561        O564   1.264       .  A
C561       C1393   1.470       .  S
Cd562       O569   2.413       .  S
Cd562       O568   2.458       .  S
Cd562       O567   2.456       .  S
Cd562       O563   2.467       .  S
Cd562       O566   2.503       .  S
Cd562       O564   2.416       .  S
C565        O569   1.264       .  A
C565        C652   1.465       .  S
O570        C573   1.268       .  A
O570       Cd575   2.502       .  S
C571        O580   1.264       .  A
C571        O576   1.268       .  A
C571        C853   1.477       .  S
O572        C578   1.267       .  A
O572       Cd575   2.482       .  S
C573        O581   1.264       .  A
C573        C727   1.480       .  S
C574        O579   1.267       .  A
C574        O577   1.263       .  A
C574        C655   1.466       .  S
Cd575       O582   2.466       .  S
Cd575       O581   2.486       .  S
Cd575       O580   2.453       .  S
Cd575       O576   2.512       .  S
Cd575       O579   2.479       .  S
Cd575       O577   2.435       .  S
C578        O582   1.266       .  A
C578       C1465   1.474       .  S
O583        C586   1.268       .  A
O583       Cd588   2.484       .  S
C584        O593   1.267       .  A
C584        O589   1.265       .  A
C584        C637   1.476       .  S
O585        C591   1.268       .  A
O585       Cd588   2.514       .  S
C586        O594   1.265       .  A
C586       C1267   1.475       .  S
C587        O592   1.270       .  A
C587        O590   1.263       .  A
C587        C616   1.471       .  S
Cd588       O595   2.445       .  S
Cd588       O594   2.465       .  S
Cd588       O593   2.496       .  S
Cd588       O589   2.466       .  S
Cd588       O592   2.497       .  S
Cd588       O590   2.429       .  S
C591        O595   1.263       .  A
C591       C1357   1.475       .  S
O596        C599   1.267       .  A
O596       Cd601   2.507       .  S
C597        O606   1.263       .  A
C597        O602   1.269       .  A
C597        C673   1.475       .  S
O598        C604   1.267       .  A
O598       Cd601   2.479       .  S
C599        O607   1.263       .  A
C599       C1123   1.478       .  S
C600        O605   1.268       .  A
C600        O603   1.266       .  A
C600       C1573   1.472       .  S
Cd601       O608   2.453       .  S
Cd601       O607   2.473       .  S
Cd601       O606   2.445       .  S
Cd601       O602   2.512       .  S
Cd601       O605   2.495       .  S
Cd601       O603   2.433       .  S
C604        O608   1.264       .  A
C604        C619   1.470       .  S
C609        C614   1.384       .  A
C609        C610   1.403       .  A
C609        N615   1.341       .  A
C610        C611   1.401   1_655  A
C610        H621   1.082       .  S
C611        C620   1.377       .  A
C611        C612   1.385       .  A
C612        C613   1.405   1_455  A
C612        N618   1.344       .  A
C613        C614   1.404       .  A
C613        H622   1.082       .  S
C614        C617   1.382       .  A
N615        C616   1.356       .  A
N615        H625   1.045       .  S
C616        C617   1.395       .  A
C617        H623   1.082       .  S
N618        C619   1.355       .  A
N618        H626   1.045       .  S
C619        C620   1.395       .  A
C620        H624   1.083       .  S
C627        C632   1.385       .  A
C627        C628   1.404       .  A
C627        N633   1.346       .  A
C628        C629   1.404       .  A
C628        H639   1.082       .  S
C629        C638   1.379       .  A
C629        C630   1.385       .  A
C630        C631   1.405       .  A
C630        N636   1.346       .  A
C631        C632   1.405       .  A
C631        H640   1.082       .  S
C632        C635   1.379       .  A
N633        C634   1.356       .  A
N633        H643   1.045       .  S
C634        C635   1.396       .  A
C635        H641   1.082       .  S
N636        C637   1.356       .  A
N636        H644   1.045       .  S
C637        C638   1.396       .  A
C638        H642   1.082       .  S
C645        C650   1.385       .  A
C645        C646   1.404       .  A
C645        N651   1.344       .  A
C646        C647   1.403       .  A
C646        H657   1.082       .  S
C647        C656   1.379       .  A
C647        C648   1.385       .  A
C648        C649   1.400       .  A
C648        N654   1.340       .  A
C649        C650   1.399       .  A
C649        H658   1.083       .  S
C650        C653   1.373       .  A
N651        C652   1.355       .  A
N651        H661   1.045       .  S
C652        C653   1.393       .  A
C653        H659   1.083       .  S
N654        C655   1.354       .  A
N654        H662   1.045       .  S
C655        C656   1.395       .  A
C656        H660   1.082       .  S
C663        C668   1.385       .  A
C663        C664   1.403       .  A
C663        N669   1.346       .  A
C664        C665   1.404       .  A
C664        H675   1.082       .  S
C665        C674   1.376       .  A
C665        C666   1.385       .  A
C666        C667   1.404       .  A
C666        N672   1.347       .  A
C667        C668   1.405       .  A
C667        H676   1.082       .  S
C668        C671   1.376       .  A
N669        C670   1.355       .  A
N669        H679   1.045       .  S
C670        C671   1.396       .  A
C671        H677   1.082       .  S
N672        C673   1.356       .  A
N672        H680   1.045       .  S
C673        C674   1.396       .  A
C674        H678   1.082       .  S
C681        C686   1.385       .  A
C681        C682   1.406       .  A
C681        N687   1.347       .  A
C682        C683   1.406       .  A
C682        H693   1.082       .  S
C683        C692   1.381       .  A
C683        C684   1.385       .  A
C684        C685   1.398       .  A
C684        N690   1.339       .  A
C685        C686   1.397       .  A
C685        H694   1.083       .  S
C686        C689   1.370       .  A
N687        C688   1.357       .  A
N687        H697   1.045       .  S
C688        C689   1.392       .  A
C689        H695   1.083       .  S
N690        C691   1.353       .  A
N690        H698   1.045       .  S
C691        C692   1.396       .  A
C692        H696   1.082       .  S
C699        C704   1.385       .  A
C699        C700   1.402       .  A
C699        N705   1.342       .  A
C700        C701   1.401       .  A
C700        H711   1.082       .  S
C701        C710   1.377       .  A
C701        C702   1.385       .  A
C702        C703   1.405       .  A
C702        N708   1.345       .  A
C703        C704   1.404       .  A
C703        H712   1.082       .  S
C704        C707   1.380       .  A
N705        C706   1.354       .  A
N705        H715   1.045       .  S
C706        C707   1.396       .  A
C707        H713   1.082       .  S
N708        C709   1.356       .  A
N708        H716   1.045       .  S
C709        C710   1.394       .  A
C710        H714   1.082       .  S
C717        C722   1.384       .  A
C717        C718   1.405       .  A
C717        N723   1.344       .  A
C718        C719   1.404       .  A
C718        H729   1.082       .  S
C719        C728   1.381       .  A
C719        C720   1.384       .  A
C720        C721   1.408       .  A
C720        N726   1.347       .  A
C721        C722   1.406       .  A
C721        H730   1.082       .  S
C722        C725   1.384       .  A
N723        C724   1.356       .  A
N723        H733   1.045       .  S
C724        C725   1.397       .  A
C725        H731   1.082       .  S
N726        C727   1.358       .  A
N726        H734   1.045       .  S
C727        C728   1.396       .  A
C728        H732   1.082       .  S
C735        C740   1.386       .  A
C735        C736   1.397       .  A
C735        N741   1.339       .  A
C736        C737   1.396   1_655  A
C736        H747   1.083       .  S
C737        C746   1.368       .  A
C737        C738   1.385       .  A
C738        C739   1.405   1_455  A
C738        N744   1.346       .  A
C739        C740   1.405       .  A
C739        H748   1.082       .  S
C740        C743   1.378       .  A
N741        C742   1.352       .  A
N741        H751   1.045       .  S
C742        C743   1.395       .  A
C743        H749   1.082       .  S
N744        C745   1.356       .  A
N744        H752   1.045       .  S
C745        C746   1.391       .  A
C746        H750   1.083       .  S
C753        C758   1.386       .  A
C753        C754   1.401       .  A
C753        N759   1.343       .  A
C754        C755   1.401       .  A
C754        H765   1.082       .  S
C755        C764   1.374       .  A
C755        C756   1.383       .  A
C756        C757   1.403       .  A
C756        N762   1.343       .  A
C757        C758   1.403       .  A
C757        H766   1.082       .  S
C758        C761   1.377       .  A
N759        C760   1.354       .  A
N759        H769   1.045       .  S
C760        C761   1.395       .  A
C761        H767   1.082       .  S
N762        C763   1.356       .  A
N762        H770   1.045       .  S
C763        C764   1.399       .  A
C764        H768   1.080       .  S
C771        C776   1.383       .  A
C771        C772   1.406       .  A
C771        N777   1.345       .  A
C772        C773   1.405       .  A
C772        H783   1.082       .  S
C773        C782   1.383       .  A
C773        C774   1.385       .  A
C774        C775   1.402       .  A
C774        N780   1.341       .  A
C775        C776   1.401       .  A
C775        H784   1.082       .  S
C776        C779   1.376       .  A
N777        C778   1.358       .  A
N777        H787   1.044       .  S
C778        C779   1.397       .  A
C779        H785   1.082       .  S
N780        C781   1.355       .  A
N780        H788   1.045       .  S
C781        C782   1.396       .  A
C782        H786   1.082       .  S
C789        C794   1.384       .  A
C789        C790   1.404       .  A
C789        N795   1.346       .  A
C790        C791   1.404       .  A
C790        H801   1.082       .  S
C791        C800   1.378       .  A
C791        C792   1.384       .  A
C792        C793   1.404       .  A
C792        N798   1.345       .  A
C793        C794   1.404       .  A
C793        H802   1.082       .  S
C794        C797   1.377       .  A
N795        C796   1.356       .  A
N795        H805   1.045       .  S
C796        C797   1.396       .  A
C797        H803   1.082       .  S
N798        C799   1.356       .  A
N798        H806   1.044       .  S
C799        C800   1.397       .  A
C800        H804   1.082       .  S
C807        C812   1.383       .  A
C807        C808   1.406       .  A
C807        N813   1.344       .  A
C808        C809   1.405       .  A
C808        H819   1.082       .  S
C809        C818   1.380       .  A
C809        C810   1.385       .  A
C810        C811   1.401       .  A
C810        N816   1.342       .  A
C811        C812   1.401       .  A
C811        H820   1.082       .  S
C812        C815   1.375       .  A
N813        C814   1.358       .  A
N813        H823   1.045       .  S
C814        C815   1.398       .  A
C815        H821   1.081       .  S
N816        C817   1.354       .  A
N816        H824   1.045       .  S
C817        C818   1.397       .  A
C818        H822   1.082       .  S
C825        C830   1.384       .  A
C825        C826   1.404       .  A
C825        N831   1.347       .  A
C826        C827   1.404   1_655  A
C826        H837   1.082       .  S
C827        C836   1.376       .  A
C827        C828   1.384       .  A
C828        C829   1.403       .  A
C828        N834   1.346       .  A
C829        C830   1.404   1_455  A
C829        H838   1.082       .  S
C830        C833   1.376       .  A
N831        C832   1.355       .  A
N831        H841   1.045       .  S
C832        C833   1.397       .  A
C833        H839   1.082       .  S
N834        C835   1.355       .  A
N834        H842   1.045       .  S
C835        C836   1.396       .  A
C836        H840   1.082       .  S
C843        C848   1.383       .  A
C843        C844   1.403       .  A
C843        N849   1.343       .  A
C844        C845   1.402       .  A
C844        H855   1.082       .  S
C845        C854   1.377       .  A
C845        C846   1.384       .  A
C846        C847   1.408       .  A
C846        N852   1.348       .  A
C847        C848   1.408       .  A
C847        H856   1.082       .  S
C848        C851   1.384       .  A
N849        C850   1.357       .  A
N849        H859   1.044       .  S
C850        C851   1.399       .  A
C851        H857   1.082       .  S
N852        C853   1.358       .  A
N852        H860   1.045       .  S
C853        C854   1.395       .  A
C854        H858   1.082       .  S
C861        C866   1.385       .  A
C861        C862   1.402   1_455  A
C861        N867   1.345       .  A
C862        C863   1.404       .  A
C862        H873   1.082       .  S
C863        C872   1.373       .  A
C863        C864   1.385       .  A
C864        C865   1.399       .  A
C864        N870   1.343       .  A
C865        C866   1.399   1_655  A
C865        H874   1.082       .  S
C866        C869   1.370       .  A
N867        C868   1.354       .  A
N867        H877   1.045       .  S
C868        C869   1.393       .  A
C869        H875   1.082       .  S
N870        C871   1.352       .  A
N870        H878   1.045       .  S
C871        C872   1.397       .  A
C872        H876   1.082       .  S
C879        C884   1.385       .  A
C879        C880   1.403       .  A
C879        N885   1.340       .  A
C880        C881   1.400       .  A
C880        H891   1.082       .  S
C881        C890   1.378       .  A
C881        C882   1.384       .  A
C882        C883   1.405       .  A
C882        N888   1.342       .  A
C883        C884   1.403       .  A
C883        H892   1.082       .  S
C884        C887   1.381       .  A
N885        C886   1.355       .  A
N885        H895   1.045       .  S
C886        C887   1.394       .  A
C887        H893   1.082       .  S
N888        C889   1.357       .  A
N888        H896   1.044       .  S
C889        C890   1.394       .  A
C890        H894   1.082       .  S
C897        C902   1.385       .  A
C897        C898   1.400       .  A
C897        N903   1.340       .  A
C898        C899   1.399   1_655  A
C898        H909   1.083       .  S
C899        C908   1.373       .  A
C899        C900   1.385       .  A
C900        C901   1.404   1_455  A
C900        N906   1.345       .  A
C901        C902   1.403       .  A
C901        H910   1.082       .  S
C902        C905   1.379       .  A
N903        C904   1.354       .  A
N903        H913   1.045       .  S
C904        C905   1.394       .  A
C905        H911   1.082       .  S
N906        C907   1.355       .  A
N906        H914   1.045       .  S
C907        C908   1.393       .  A
C908        H912   1.083       .  S
C915        C920   1.385       .  A
C915        C916   1.402       .  A
C915        N921   1.344       .  A
C916        C917   1.403       .  A
C916        H927   1.082       .  S
C917        C926   1.376       .  A
C917        C918   1.383       .  A
C918        C919   1.404       .  A
C918        N924   1.344       .  A
C919        C920   1.403       .  A
C919        H928   1.082       .  S
C920        C923   1.377       .  A
N921        C922   1.355       .  A
N921        H931   1.045       .  S
C922        C923   1.395       .  A
C923        H929   1.082       .  S
N924        C925   1.357       .  A
N924        H932   1.045       .  S
C925        C926   1.400       .  A
C926        H930   1.080       .  S
C933        C938   1.384       .  A
C933        C934   1.406       .  A
C933        N939   1.344       .  A
C934        C935   1.404       .  A
C934        H945   1.082       .  S
C935        C944   1.382       .  A
C935        C936   1.384       .  A
C936        C937   1.406       .  A
C936        N942   1.344       .  A
C937        C938   1.405       .  A
C937        H946   1.082       .  S
C938        C941   1.383       .  A
N939        C940   1.357       .  A
N939        H949   1.045       .  S
C940        C941   1.396       .  A
C941        H947   1.082       .  S
N942        C943   1.357       .  A
N942        H950   1.045       .  S
C943        C944   1.396       .  A
C944        H948   1.082       .  S
C951        C956   1.385       .  A
C951        C952   1.401       .  A
C951        N957   1.340       .  A
C952        C953   1.400       .  A
C952        H963   1.082       .  S
C953        C962   1.376       .  A
C953        C954   1.384       .  A
C954        C955   1.407       .  A
C954        N960   1.346       .  A
C955        C956   1.406       .  A
C955        H964   1.082       .  S
C956        C959   1.384       .  A
N957        C958   1.354       .  A
N957        H967   1.045       .  S
C958        C959   1.397       .  A
C959        H965   1.082       .  S
N960        C961   1.357       .  A
N960        H968   1.045       .  S
C961        C962   1.394       .  A
C962        H966   1.082       .  S
C969        C974   1.385       .  A
C969        C970   1.399       .  A
C969        N975   1.340       .  A
C970        C971   1.397       .  A
C970        H981   1.083       .  S
C971        C980   1.371       .  A
C971        C972   1.383       .  A
C972        C973   1.410       .  A
C972        N978   1.348       .  A
C973        C974   1.409       .  A
C973        H982   1.082       .  S
C974        C977   1.386       .  A
N975        C976   1.353       .  A
N975        H985   1.045       .  S
C976        C977   1.399       .  A
C977        H983   1.082       .  S
N978        C979   1.359       .  A
N978        H986   1.044       .  S
C979        C980   1.394       .  A
C980        H984   1.082       .  S
C987        C992   1.385       .  A
C987        C988   1.404       .  A
C987        N993   1.343       .  A
C988        C989   1.403       .  A
C988        H999   1.082       .  S
C989        C998   1.381       .  A
C989        C990   1.385       .  A
C990        C991   1.404       .  A
C990        N996   1.342       .  A
C991        C992   1.402       .  A
C991       H1000   1.082       .  S
C992        C995   1.379       .  A
N993        C994   1.355       .  A
N993       H1003   1.045       .  S
C994        C995   1.395       .  A
C995       H1001   1.082       .  S
N996        C997   1.355       .  A
N996       H1004   1.045       .  S
C997        C998   1.396       .  A
C998       H1002   1.082       .  S
C1005      C1010   1.384       .  A
C1005      C1006   1.403       .  A
C1005      N1011   1.344       .  A
C1006      C1007   1.403   1_655  A
C1006      H1017   1.082       .  S
C1007      C1016   1.377       .  A
C1007      C1008   1.384       .  A
C1008      C1009   1.407   1_455  A
C1008      N1014   1.348       .  A
C1009      C1010   1.406       .  A
C1009      H1018   1.082       .  S
C1010      C1013   1.382       .  A
N1011      C1012   1.356       .  A
N1011      H1021   1.045       .  S
C1012      C1013   1.397       .  A
C1013      H1019   1.082       .  S
N1014      C1015   1.357       .  A
N1014      H1022   1.044       .  S
C1015      C1016   1.396       .  A
C1016      H1020   1.082       .  S
C1023      C1028   1.385       .  A
C1023      C1024   1.403       .  A
C1023      N1029   1.346       .  A
C1024      C1025   1.404       .  A
C1024      H1035   1.082       .  S
C1025      C1034   1.376       .  A
C1025      C1026   1.384       .  A
C1026      C1027   1.408       .  A
C1026      N1032   1.351       .  A
C1027      C1028   1.409       .  A
C1027      H1036   1.082       .  S
C1028      C1031   1.382       .  A
N1029      C1030   1.355       .  A
N1029      H1039   1.045       .  S
C1030      C1031   1.399       .  A
C1031      H1037   1.082       .  S
N1032      C1033   1.359       .  A
N1032      H1040   1.044       .  S
C1033      C1034   1.395       .  A
C1034      H1038   1.082       .  S
C1041      C1046   1.384       .  A
C1041      C1042   1.408       .  A
C1041      N1047   1.348       .  A
C1042      C1043   1.408       .  A
C1042      H1053   1.082       .  S
C1043      C1052   1.383       .  A
C1043      C1044   1.383       .  A
C1044      C1045   1.402       .  A
C1044      N1050   1.342       .  A
C1045      C1046   1.401       .  A
C1045      H1054   1.082       .  S
C1046      C1049   1.375       .  A
N1047      C1048   1.358       .  A
N1047      H1057   1.045       .  S
C1048      C1049   1.394       .  A
C1049      H1055   1.082       .  S
N1050      C1051   1.358       .  A
N1050      H1058   1.044       .  S
C1051      C1052   1.401       .  A
C1052      H1056   1.081       .  S
C1059      C1064   1.385       .  A
C1059      C1060   1.402       .  A
C1059      N1065   1.343       .  A
C1060      C1061   1.401       .  A
C1060      H1071   1.082       .  S
C1061      C1070   1.376       .  A
C1061      C1062   1.385       .  A
C1062      C1063   1.404       .  A
C1062      N1068   1.344       .  A
C1063      C1064   1.403       .  A
C1063      H1072   1.082       .  S
C1064      C1067   1.379       .  A
N1065      C1066   1.354       .  A
N1065      H1075   1.045       .  S
C1066      C1067   1.396       .  A
C1067      H1073   1.082       .  S
N1068      C1069   1.355       .  A
N1068      H1076   1.045       .  S
C1069      C1070   1.394       .  A
C1070      H1074   1.082       .  S
C1077      C1082   1.385       .  A
C1077      C1078   1.407       .  A
C1077      N1083   1.346       .  A
C1078      C1079   1.406       .  A
C1078      H1089   1.082       .  S
C1079      C1088   1.383       .  A
C1079      C1080   1.385       .  A
C1080      C1081   1.400       .  A
C1080      N1086   1.340       .  A
C1081      C1082   1.398       .  A
C1081      H1090   1.083       .  S
C1082      C1085   1.373       .  A
N1083      C1084   1.356       .  A
N1083      H1093   1.045       .  S
C1084      C1085   1.392       .  A
C1085      H1091   1.083       .  S
N1086      C1087   1.354       .  A
N1086      H1094   1.045       .  S
C1087      C1088   1.397       .  A
C1088      H1092   1.082       .  S
C1095      C1100   1.385       .  A
C1095      C1096   1.403       .  A
C1095      N1101   1.345       .  A
C1096      C1097   1.403       .  A
C1096      H1107   1.082       .  S
C1097      C1106   1.375       .  A
C1097      C1098   1.383       .  A
C1098      C1099   1.401       .  A
C1098      N1104   1.342       .  A
C1099      C1100   1.401       .  A
C1099      H1108   1.082       .  S
C1100      C1103   1.374       .  A
N1101      C1102   1.355       .  A
N1101      H1111   1.045       .  S
C1102      C1103   1.394       .  A
C1103      H1109   1.082       .  S
N1104      C1105   1.355       .  A
N1104      H1112   1.045       .  S
C1105      C1106   1.401       .  A
C1106      H1110   1.080       .  S
C1113      C1118   1.383       .  A
C1113      C1114   1.408       .  A
C1113      N1119   1.348       .  A
C1114      C1115   1.407       .  A
C1114      H1125   1.082       .  S
C1115      C1124   1.383       .  A
C1115      C1116   1.384       .  A
C1116      C1117   1.405       .  A
C1116      N1122   1.345       .  A
C1117      C1118   1.405       .  A
C1117      H1126   1.082       .  S
C1118      C1121   1.378       .  A
N1119      C1120   1.359       .  A
N1119      H1129   1.044       .  S
C1120      C1121   1.400       .  A
C1121      H1127   1.082       .  S
N1122      C1123   1.357       .  A
N1122      H1130   1.045       .  S
C1123      C1124   1.397       .  A
C1124      H1128   1.082       .  S
C1131      C1136   1.385       .  A
C1131      C1132   1.401       .  A
C1131      N1137   1.343       .  A
C1132      C1133   1.402       .  A
C1132      H1143   1.082       .  S
C1133      C1142   1.374       .  A
C1133      C1134   1.383       .  A
C1134      C1135   1.402       .  A
C1134      N1140   1.343       .  A
C1135      C1136   1.402       .  A
C1135      H1144   1.082       .  S
C1136      C1139   1.375       .  A
N1137      C1138   1.354       .  A
N1137      H1147   1.045       .  S
C1138      C1139   1.394       .  A
C1139      H1145   1.082       .  S
N1140      C1141   1.356       .  A
N1140      H1148   1.045       .  S
C1141      C1142   1.400       .  A
C1142      H1146   1.080       .  S
C1149      C1154   1.383       .  A
C1149      C1150   1.405       .  A
C1149      N1155   1.345       .  A
C1150      C1151   1.403       .  A
C1150      H1161   1.082       .  S
C1151      C1160   1.381       .  A
C1151      C1152   1.384       .  A
C1152      C1153   1.404       .  A
C1152      N1158   1.343       .  A
C1153      C1154   1.403       .  A
C1153      H1162   1.082       .  S
C1154      C1157   1.378       .  A
N1155      C1156   1.359       .  A
N1155      H1165   1.043       .  S
C1156      C1157   1.398       .  A
C1157      H1163   1.082       .  S
N1158      C1159   1.356       .  A
N1158      H1166   1.045       .  S
C1159      C1160   1.395       .  A
C1160      H1164   1.082       .  S
C1167      C1172   1.383       .  A
C1167      C1168   1.408       .  A
C1167      N1173   1.347       .  A
C1168      C1169   1.408       .  A
C1168      H1179   1.082       .  S
C1169      C1178   1.385       .  A
C1169      C1170   1.384       .  A
C1170      C1171   1.403       .  A
C1170      N1176   1.343       .  A
C1171      C1172   1.402       .  A
C1171      H1180   1.082       .  S
C1172      C1175   1.378       .  A
N1173      C1174   1.359       .  A
N1173      H1183   1.044       .  S
C1174      C1175   1.397       .  A
C1175      H1181   1.082       .  S
N1176      C1177   1.356       .  A
N1176      H1184   1.045       .  S
C1177      C1178   1.398       .  A
C1178      H1182   1.082       .  S
C1185      C1190   1.384   1_556  A
C1185      C1186   1.403       .  A
C1185      N1191   1.346       .  A
C1186      C1187   1.403       .  A
C1186      H1197   1.082       .  S
C1187      C1196   1.376       .  A
C1187      C1188   1.384   1_556  A
C1188      C1189   1.406       .  A
C1188      N1194   1.347       .  A
C1189      C1190   1.407       .  A
C1189      H1198   1.082       .  S
C1190      C1193   1.377       .  A
N1191      C1192   1.355   1_556  A
N1191      H1201   1.044       .  S
C1192      C1193   1.401       .  A
C1193      H1199   1.082       .  S
N1194      C1195   1.357   1_554  A
N1194      H1202   1.045       .  S
C1195      C1196   1.395       .  A
C1196      H1200   1.082       .  S
C1203      C1208   1.384       .  A
C1203      C1204   1.405       .  A
C1203      N1209   1.345       .  A
C1204      C1205   1.405       .  A
C1204      H1215   1.082       .  S
C1205      C1214   1.381       .  A
C1205      C1206   1.384       .  A
C1206      C1207   1.403       .  A
C1206      N1212   1.343       .  A
C1207      C1208   1.402       .  A
C1207      H1216   1.082       .  S
C1208      C1211   1.376       .  A
N1209      C1210   1.356       .  A
N1209      H1219   1.044       .  S
C1210      C1211   1.396       .  A
C1211      H1217   1.082       .  S
N1212      C1213   1.356       .  A
N1212      H1220   1.045       .  S
C1213      C1214   1.395       .  A
C1214      H1218   1.082       .  S
C1221      C1226   1.385       .  A
C1221      C1222   1.402       .  A
C1221      N1227   1.342       .  A
C1222      C1223   1.402       .  A
C1222      H1233   1.082       .  S
C1223      C1232   1.375       .  A
C1223      C1224   1.384       .  A
C1224      C1225   1.404       .  A
C1224      N1230   1.344       .  A
C1225      C1226   1.402       .  A
C1225      H1234   1.082       .  S
C1226      C1229   1.378       .  A
N1227      C1228   1.355       .  A
N1227      H1237   1.045       .  S
C1228      C1229   1.394       .  A
C1229      H1235   1.082       .  S
N1230      C1231   1.358       .  A
N1230      H1238   1.043       .  S
C1231      C1232   1.397       .  A
C1232      H1236   1.082       .  S
C1239      C1244   1.384   1_556  A
C1239      C1240   1.403       .  A
C1239      N1245   1.344       .  A
C1240      C1241   1.403   1_655  A
C1240      H1251   1.082       .  S
C1241      C1250   1.376       .  A
C1241      C1242   1.385   1_556  A
C1242      C1243   1.403   1_455  A
C1242      N1248   1.345       .  A
C1243      C1244   1.403       .  A
C1243      H1252   1.082       .  S
C1244      C1247   1.375       .  A
N1245      C1246   1.355   1_556  A
N1245      H1255   1.044       .  S
C1246      C1247   1.397       .  A
C1247      H1253   1.082       .  S
N1248      C1249   1.355   1_554  A
N1248      H1256   1.045       .  S
C1249      C1250   1.397       .  A
C1250      H1254   1.082       .  S
C1257      C1262   1.383       .  A
C1257      C1258   1.406       .  A
C1257      N1263   1.346       .  A
C1258      C1259   1.405       .  A
C1258      H1269   1.082       .  S
C1259      C1268   1.381       .  A
C1259      C1260   1.384       .  A
C1260      C1261   1.404       .  A
C1260      N1266   1.344       .  A
C1261      C1262   1.404       .  A
C1261      H1270   1.082       .  S
C1262      C1265   1.377       .  A
N1263      C1264   1.360       .  A
N1263      H1273   1.043       .  S
C1264      C1265   1.398       .  A
C1265      H1271   1.082       .  S
N1266      C1267   1.356       .  A
N1266      H1274   1.045       .  S
C1267      C1268   1.396       .  A
C1268      H1272   1.082       .  S
C1275      C1280   1.383       .  A
C1275      C1276   1.406       .  A
C1275      N1281   1.345       .  A
C1276      C1277   1.405       .  A
C1276      H1287   1.082       .  S
C1277      C1286   1.380       .  A
C1277      C1278   1.384       .  A
C1278      C1279   1.406       .  A
C1278      N1284   1.346       .  A
C1279      C1280   1.405       .  A
C1279      H1288   1.082       .  S
C1280      C1283   1.381       .  A
N1281      C1282   1.359       .  A
N1281      H1291   1.044       .  S
C1282      C1283   1.398       .  A
C1283      H1289   1.082       .  S
N1284      C1285   1.356       .  A
N1284      H1292   1.045       .  S
C1285      C1286   1.397       .  A
C1286      H1290   1.082       .  S
C1293      C1298   1.383   1_556  A
C1293      C1294   1.405   1_455  A
C1293      N1299   1.348       .  A
C1294      C1295   1.406       .  A
C1294      H1305   1.082       .  S
C1295      C1304   1.377       .  A
C1295      C1296   1.385   1_556  A
C1296      C1297   1.404       .  A
C1296      N1302   1.347       .  A
C1297      C1298   1.405   1_655  A
C1297      H1306   1.082       .  S
C1298      C1301   1.375       .  A
N1299      C1300   1.357   1_556  A
N1299      H1309   1.044       .  S
C1300      C1301   1.400       .  A
C1301      H1307   1.082       .  S
N1302      C1303   1.356   1_554  A
N1302      H1310   1.045       .  S
C1303      C1304   1.396       .  A
C1304      H1308   1.082       .  S
C1311      C1316   1.384   1_554  A
C1311      C1312   1.402       .  A
C1311      N1317   1.344       .  A
C1312      C1313   1.402       .  A
C1312      H1323   1.082       .  S
C1313      C1322   1.376       .  A
C1313      C1314   1.384   1_554  A
C1314      C1315   1.406       .  A
C1314      N1320   1.346       .  A
C1315      C1316   1.406       .  A
C1315      H1324   1.082       .  S
C1316      C1319   1.380       .  A
N1317      C1318   1.356   1_554  A
N1317      H1327   1.044       .  S
C1318      C1319   1.400       .  A
C1319      H1325   1.082       .  S
N1320      C1321   1.356   1_556  A
N1320      H1328   1.045       .  S
C1321      C1322   1.394       .  A
C1322      H1326   1.082       .  S
C1329      C1334   1.385       .  A
C1329      C1330   1.405       .  A
C1329      N1335   1.346       .  A
C1330      C1331   1.405       .  A
C1330      H1341   1.082       .  S
C1331      C1340   1.379       .  A
C1331      C1332   1.385       .  A
C1332      C1333   1.397       .  A
C1332      N1338   1.339       .  A
C1333      C1334   1.396       .  A
C1333      H1342   1.083       .  S
C1334      C1337   1.369       .  A
N1335      C1336   1.356       .  A
N1335      H1345   1.045       .  S
C1336      C1337   1.391       .  A
C1337      H1343   1.083       .  S
N1338      C1339   1.352       .  A
N1338      H1346   1.045       .  S
C1339      C1340   1.396       .  A
C1340      H1344   1.082       .  S
C1347      C1352   1.384       .  A
C1347      C1348   1.408       .  A
C1347      N1353   1.347       .  A
C1348      C1349   1.408       .  A
C1348      H1359   1.082       .  S
C1349      C1358   1.385       .  A
C1349      C1350   1.385       .  A
C1350      C1351   1.401       .  A
C1350      N1356   1.341       .  A
C1351      C1352   1.399       .  A
C1351      H1360   1.082       .  S
C1352      C1355   1.374       .  A
N1353      C1354   1.358       .  A
N1353      H1363   1.045       .  S
C1354      C1355   1.392       .  A
C1355      H1361   1.083       .  S
N1356      C1357   1.355       .  A
N1356      H1364   1.045       .  S
C1357      C1358   1.398       .  A
C1358      H1362   1.082       .  S
C1365      C1370   1.385       .  A
C1365      C1366   1.405   1_565  A
C1365      N1371   1.344       .  A
C1366      C1367   1.404       .  A
C1366      H1377   1.082       .  S
C1367      C1376   1.381       .  A
C1367      C1368   1.385       .  A
C1368      C1369   1.398       .  A
C1368      N1374   1.338       .  A
C1369      C1370   1.397   1_545  A
C1369      H1378   1.083       .  S
C1370      C1373   1.371       .  A
N1371      C1372   1.355       .  A
N1371      H1381   1.045       .  S
C1372      C1373   1.391       .  A
C1373      H1379   1.083       .  S
N1374      C1375   1.353       .  A
N1374      H1382   1.045       .  S
C1375      C1376   1.396       .  A
C1376      H1380   1.082       .  S
C1383      C1388   1.385       .  A
C1383      C1384   1.399       .  A
C1383      N1389   1.341       .  A
C1384      C1385   1.399       .  A
C1384      H1395   1.083       .  S
C1385      C1394   1.371       .  A
C1385      C1386   1.385       .  A
C1386      C1387   1.407       .  A
C1386      N1392   1.348       .  A
C1387      C1388   1.407       .  A
C1387      H1396   1.082       .  S
C1388      C1391   1.382       .  A
N1389      C1390   1.354       .  A
N1389      H1399   1.045       .  S
C1390      C1391   1.397       .  A
C1391      H1397   1.082       .  S
N1392      C1393   1.357       .  A
N1392      H1400   1.045       .  S
C1393      C1394   1.392       .  A
C1394      H1398   1.083       .  S
C1401      C1406   1.384       .  A
C1401      C1402   1.405       .  A
C1401      N1407   1.344       .  A
C1402      C1403   1.403       .  A
C1402      H1413   1.082       .  S
C1403      C1412   1.381       .  A
C1403      C1404   1.384       .  A
C1404      C1405   1.404       .  A
C1404      N1410   1.343       .  A
C1405      C1406   1.403       .  A
C1405      H1414   1.082       .  S
C1406      C1409   1.380       .  A
N1407      C1408   1.357       .  A
N1407      H1417   1.045       .  S
C1408      C1409   1.395       .  A
C1409      H1415   1.082       .  S
N1410      C1411   1.356       .  A
N1410      H1418   1.045       .  S
C1411      C1412   1.395       .  A
C1412      H1416   1.082       .  S
C1419      C1424   1.385       .  A
C1419      C1420   1.398       .  A
C1419      N1425   1.337       .  A
C1420      C1421   1.396       .  A
C1420      H1431   1.083       .  S
C1421      C1430   1.373       .  A
C1421      C1422   1.384       .  A
C1422      C1423   1.408       .  A
C1422      N1428   1.345       .  A
C1423      C1424   1.407       .  A
C1423      H1432   1.082       .  S
C1424      C1427   1.386       .  A
N1425      C1426   1.352       .  A
N1425      H1435   1.045       .  S
C1426      C1427   1.398       .  A
C1427      H1433   1.082       .  S
N1428      C1429   1.357       .  A
N1428      H1436   1.045       .  S
C1429      C1430   1.391       .  A
C1430      H1434   1.083       .  S
C1437      C1442   1.385       .  A
C1437      C1438   1.403       .  A
C1437      N1443   1.344       .  A
C1438      C1439   1.403       .  A
C1438      H1449   1.082       .  S
C1439      C1448   1.379       .  A
C1439      C1440   1.385       .  A
C1440      C1441   1.402       .  A
C1440      N1446   1.342       .  A
C1441      C1442   1.401       .  A
C1441      H1450   1.083       .  S
C1442      C1445   1.375       .  A
N1443      C1444   1.354       .  A
N1443      H1453   1.045       .  S
C1444      C1445   1.394       .  A
C1445      H1451   1.083       .  S
N1446      C1447   1.355       .  A
N1446      H1454   1.045       .  S
C1447      C1448   1.394       .  A
C1448      H1452   1.082       .  S
C1455      C1460   1.384       .  A
C1455      C1456   1.402       .  A
C1455      N1461   1.341       .  A
C1456      C1457   1.401       .  A
C1456      H1467   1.082       .  S
C1457      C1466   1.378       .  A
C1457      C1458   1.384       .  A
C1458      C1459   1.407       .  A
C1458      N1464   1.346       .  A
C1459      C1460   1.406       .  A
C1459      H1468   1.082       .  S
C1460      C1463   1.384       .  A
N1461      C1462   1.355       .  A
N1461      H1471   1.045       .  S
C1462      C1463   1.397       .  A
C1463      H1469   1.082       .  S
N1464      C1465   1.357       .  A
N1464      H1472   1.045       .  S
C1465      C1466   1.395       .  A
C1466      H1470   1.082       .  S
C1473      C1478   1.385       .  A
C1473      C1474   1.401       .  A
C1473      N1479   1.344       .  A
C1474      C1475   1.401       .  A
C1474      H1485   1.082       .  S
C1475      C1484   1.373       .  A
C1475      C1476   1.385       .  A
C1476      C1477   1.406       .  A
C1476      N1482   1.347       .  A
C1477      C1478   1.407       .  A
C1477      H1486   1.082       .  S
C1478      C1481   1.380       .  A
N1479      C1480   1.354       .  A
N1479      H1489   1.045       .  S
C1480      C1481   1.398       .  A
C1481      H1487   1.082       .  S
N1482      C1483   1.357       .  A
N1482      H1490   1.045       .  S
C1483      C1484   1.393       .  A
C1484      H1488   1.083       .  S
C1491      C1496   1.385       .  A
C1491      C1492   1.401       .  A
C1491      N1497   1.341       .  A
C1492      C1493   1.400       .  A
C1492      H1503   1.082       .  S
C1493      C1502   1.376       .  A
C1493      C1494   1.385       .  A
C1494      C1495   1.405       .  A
C1494      N1500   1.345       .  A
C1495      C1496   1.404       .  A
C1495      H1504   1.082       .  S
C1496      C1499   1.380       .  A
N1497      C1498   1.354       .  A
N1497      H1507   1.045       .  S
C1498      C1499   1.395       .  A
C1499      H1505   1.082       .  S
N1500      C1501   1.356       .  A
N1500      H1508   1.045       .  S
C1501      C1502   1.394       .  A
C1502      H1506   1.082       .  S
C1509      C1514   1.384       .  A
C1509      C1510   1.410       .  A
C1509      N1515   1.350       .  A
C1510      C1511   1.410       .  A
C1510      H1521   1.082       .  S
C1511      C1520   1.386       .  A
C1511      C1512   1.385       .  A
C1512      C1513   1.398       .  A
C1512      N1518   1.340       .  A
C1513      C1514   1.397       .  A
C1513      H1522   1.083       .  S
C1514      C1517   1.372       .  A
N1515      C1516   1.359       .  A
N1515      H1525   1.044       .  S
C1516      C1517   1.392       .  A
C1517      H1523   1.083       .  S
N1518      C1519   1.353       .  A
N1518      H1526   1.045       .  S
C1519      C1520   1.399       .  A
C1520      H1524   1.082       .  S
C1527      C1532   1.385       .  A
C1527      C1528   1.400       .  A
C1527      N1533   1.341       .  A
C1528      C1529   1.399       .  A
C1528      H1539   1.082       .  S
C1529      C1538   1.373       .  A
C1529      C1530   1.385       .  A
C1530      C1531   1.406       .  A
C1530      N1536   1.346       .  A
C1531      C1532   1.406       .  A
C1531      H1540   1.082       .  S
C1532      C1535   1.382       .  A
N1533      C1534   1.353       .  A
N1533      H1543   1.045       .  S
C1534      C1535   1.397       .  A
C1535      H1541   1.082       .  S
N1536      C1537   1.356       .  A
N1536      H1544   1.045       .  S
C1537      C1538   1.392       .  A
C1538      H1542   1.083       .  S
C1545      C1550   1.385       .  A
C1545      C1546   1.403       .  A
C1545      N1551   1.346       .  A
C1546      C1547   1.403       .  A
C1546      H1557   1.082       .  S
C1547      C1556   1.376       .  A
C1547      C1548   1.385       .  A
C1548      C1549   1.405       .  A
C1548      N1554   1.347       .  A
C1549      C1550   1.405       .  A
C1549      H1558   1.082       .  S
C1550      C1553   1.379       .  A
N1551      C1552   1.355       .  A
N1551      H1561   1.045       .  S
C1552      C1553   1.397       .  A
C1553      H1559   1.082       .  S
N1554      C1555   1.356       .  A
N1554      H1562   1.045       .  S
C1555      C1556   1.395       .  A
C1556      H1560   1.082       .  S
C1563      C1568   1.385       .  A
C1563      C1564   1.399       .  A
C1563      N1569   1.340       .  A
C1564      C1565   1.398       .  A
C1564      H1575   1.082       .  S
C1565      C1574   1.372       .  A
C1565      C1566   1.384       .  A
C1566      C1567   1.409       .  A
C1566      N1572   1.348       .  A
C1567      C1568   1.408       .  A
C1567      H1576   1.082       .  S
C1568      C1571   1.385       .  A
N1569      C1570   1.354       .  A
N1569      H1579   1.045       .  S
C1570      C1571   1.398       .  A
C1571      H1577   1.082       .  S
N1572      C1573   1.358       .  A
N1572      H1580   1.045       .  S
C1573      C1574   1.392       .  A
C1574      H1578   1.083       .  S
C1581      C1586   1.385       .  A
C1581      C1582   1.406       .  A
C1581      N1587   1.347       .  A
C1582      C1583   1.406       .  A
C1582      H1593   1.082       .  S
C1583      C1592   1.380       .  A
C1583      C1584   1.385       .  A
C1584      C1585   1.403       .  A
C1584      N1590   1.345       .  A
C1585      C1586   1.403       .  A
C1585      H1594   1.082       .  S
C1586      C1589   1.376       .  A
N1587      C1588   1.357       .  A
N1587      H1597   1.045       .  S
C1588      C1589   1.395       .  A
C1589      H1595   1.082       .  S
N1590      C1591   1.355       .  A
N1590      H1598   1.045       .  S
C1591      C1592   1.397       .  A
C1592      H1596   1.082       .  S
C1599      C1604   1.385       .  A
C1599      C1600   1.407   1_545  A
C1599      N1605   1.347       .  A
C1600      C1601   1.407       .  A
C1600      H1611   1.082       .  S
C1601      C1610   1.382       .  A
C1601      C1602   1.385       .  A
C1602      C1603   1.399       .  A
C1602      N1608   1.341       .  A
C1603      C1604   1.398   1_565  A
C1603      H1612   1.083       .  S
C1604      C1607   1.371       .  A
N1605      C1606   1.357       .  A
N1605      H1615   1.045       .  S
C1606      C1607   1.391       .  A
C1607      H1613   1.083       .  S
N1608      C1609   1.354       .  A
N1608      H1616   1.045       .  S
C1609      C1610   1.397       .  A
C1610      H1614   1.082       .  S
C1617      C1622   1.383       .  A
C1617      C1618   1.403       .  A
C1617      N1623   1.344       .  A
C1618      C1619   1.402       .  A
C1618      H1629   1.082       .  S
C1619      C1628   1.377       .  A
C1619      C1620   1.385       .  A
C1620      C1621   1.407       .  A
C1620      N1626   1.348       .  A
C1621      C1622   1.407       .  A
C1621      H1630   1.082       .  S
C1622      C1625   1.381       .  A
N1623      C1624   1.357       .  A
N1623      H1633   1.044       .  S
C1624      C1625   1.400       .  A
C1625      H1631   1.081       .  S
N1626      C1627   1.357       .  A
N1626      H1634   1.045       .  S
C1627      C1628   1.395       .  A
C1628      H1632   1.082       .  S
C1635      C1640   1.383       .  A
C1635      C1636   1.404       .  A
C1635      N1641   1.345       .  A
C1636      C1637   1.404       .  A
C1636      H1647   1.082       .  S
C1637      C1646   1.378       .  A
C1637      C1638   1.384       .  A
C1638      C1639   1.406       .  A
C1638      N1644   1.348       .  A
C1639      C1640   1.407       .  A
C1639      H1648   1.082       .  S
C1640      C1643   1.380       .  A
N1641      C1642   1.357       .  A
N1641      H1651   1.045       .  S
C1642      C1643   1.403       .  A
C1643      H1649   1.080       .  S
N1644      C1645   1.357       .  A
N1644      H1652   1.045       .  S
C1645      C1646   1.396       .  A
C1646      H1650   1.082       .  S
C1653      C1658   1.384       .  A
C1653      C1654   1.406       .  A
C1653      N1659   1.346       .  A
C1654      C1655   1.406       .  A
C1654      H1665   1.082       .  S
C1655      C1664   1.379       .  A
C1655      C1656   1.384       .  A
C1656      C1657   1.403       .  A
C1656      N1662   1.345       .  A
C1657      C1658   1.403       .  A
C1657      H1666   1.082       .  S
C1658      C1661   1.377       .  A
N1659      C1660   1.357       .  A
N1659      H1669   1.044       .  S
C1660      C1661   1.397       .  A
C1661      H1667   1.082       .  S
N1662      C1663   1.355       .  A
N1662      H1670   1.045       .  S
C1663      C1664   1.398       .  A
C1664      H1668   1.082       .  S
C1671      C1676   1.383       .  A
C1671      C1672   1.401       .  A
C1671      N1677   1.341       .  A
C1672      C1673   1.401       .  A
C1672      H1683   1.082       .  S
C1673      C1682   1.374       .  A
C1673      C1674   1.385       .  A
C1674      C1675   1.404       .  A
C1674      N1680   1.346       .  A
C1675      C1676   1.404       .  A
C1675      H1684   1.082       .  S
C1676      C1679   1.377       .  A
N1677      C1678   1.355       .  A
N1677      H1687   1.045       .  S
C1678      C1679   1.400       .  A
C1679      H1685   1.080       .  S
N1680      C1681   1.356       .  A
N1680      H1688   1.045       .  S
C1681      C1682   1.394       .  A
C1682      H1686   1.083       .  S
C1689      C1694   1.385       .  A
C1689      C1690   1.400       .  A
C1689      N1695   1.343       .  A
C1690      C1691   1.401   1_565  A
C1690      H1701   1.082       .  S
C1691      C1700   1.372       .  A
C1691      C1692   1.385       .  A
C1692      C1693   1.402       .  A
C1692      N1698   1.344       .  A
C1693      C1694   1.402   1_545  A
C1693      H1702   1.082       .  S
C1694      C1697   1.374       .  A
N1695      C1696   1.353       .  A
N1695      H1705   1.045       .  S
C1696      C1697   1.394       .  A
C1697      H1703   1.082       .  S
N1698      C1699   1.355       .  A
N1698      H1706   1.044       .  S
C1699      C1700   1.395       .  A
C1700      H1704   1.082       .  S
C1707      C1712   1.383       .  A
C1707      C1708   1.402       .  A
C1707      N1713   1.342       .  A
C1708      C1709   1.401       .  A
C1708      H1719   1.082       .  S
C1709      C1718   1.376       .  A
C1709      C1710   1.384       .  A
C1710      C1711   1.407       .  A
C1710      N1716   1.347       .  A
C1711      C1712   1.407       .  A
C1711      H1720   1.082       .  S
C1712      C1715   1.381       .  A
N1713      C1714   1.357       .  A
N1713      H1723   1.044       .  S
C1714      C1715   1.399       .  A
C1715      H1721   1.082       .  S
N1716      C1717   1.357       .  A
N1716      H1724   1.045       .  S
C1717      C1718   1.394       .  A
C1718      H1722   1.082       .  S
C1725      C1730   1.385       .  A
C1725      C1726   1.401       .  A
C1725      N1731   1.343       .  A
C1726      C1727   1.401   1_565  A
C1726      H1737   1.082       .  S
C1727      C1736   1.374       .  A
C1727      C1728   1.385       .  A
C1728      C1729   1.405       .  A
C1728      N1734   1.346       .  A
C1729      C1730   1.405   1_545  A
C1729      H1738   1.082       .  S
C1730      C1733   1.378       .  A
N1731      C1732   1.354       .  A
N1731      H1741   1.045       .  S
C1732      C1733   1.397       .  A
C1733      H1739   1.082       .  S
N1734      C1735   1.356       .  A
N1734      H1742   1.044       .  S
C1735      C1736   1.394       .  A
C1736      H1740   1.082       .  S
C1743      C1748   1.384       .  A
C1743      C1744   1.403       .  A
C1743      N1749   1.341       .  A
C1744      C1745   1.401       .  A
C1744      H1755   1.082       .  S
C1745      C1754   1.377       .  A
C1745      C1746   1.384       .  A
C1746      C1747   1.404       .  A
C1746      N1752   1.342       .  A
C1747      C1748   1.403       .  A
C1747      H1756   1.082       .  S
C1748      C1751   1.380       .  A
N1749      C1750   1.355       .  A
N1749      H1759   1.045       .  S
C1750      C1751   1.395       .  A
C1751      H1757   1.082       .  S
N1752      C1753   1.356       .  A
N1752      H1760   1.045       .  S
C1753      C1754   1.393       .  A
C1754      H1758   1.082       .  S
C1761      C1766   1.385       .  A
C1761      C1762   1.400       .  A
C1761      N1767   1.341       .  A
C1762      C1763   1.400       .  A
C1762      H1773   1.082       .  S
C1763      C1772   1.374       .  A
C1763      C1764   1.385       .  A
C1764      C1765   1.406       .  A
C1764      N1770   1.346       .  A
C1765      C1766   1.405       .  A
C1765      H1774   1.082       .  S
C1766      C1769   1.381       .  A
N1767      C1768   1.354       .  A
N1767      H1777   1.045       .  S
C1768      C1769   1.396       .  A
C1769      H1775   1.082       .  S
N1770      C1771   1.357       .  A
N1770      H1778   1.045       .  S
C1771      C1772   1.394       .  A
C1772      H1776   1.083       .  S
C1779      C1784   1.384       .  A
C1779      C1780   1.406       .  A
C1779      N1785   1.348       .  A
C1780      C1781   1.406       .  A
C1780      H1791   1.082       .  S
C1781      C1790   1.380       .  A
C1781      C1782   1.383       .  A
C1782      C1783   1.403       .  A
C1782      N1788   1.344       .  A
C1783      C1784   1.403       .  A
C1783      H1792   1.082       .  S
C1784      C1787   1.377       .  A
N1785      C1786   1.357       .  A
N1785      H1795   1.045       .  S
C1786      C1787   1.395       .  A
C1787      H1793   1.082       .  S
N1788      C1789   1.357       .  A
N1788      H1796   1.044       .  S
C1789      C1790   1.399       .  A
C1790      H1794   1.082       .  S
C1797      C1802   1.385       .  A
C1797      C1798   1.397       .  A
C1797      N1803   1.338       .  A
C1798      C1799   1.396       .  A
C1798      H1809   1.083       .  S
C1799      C1808   1.371       .  A
C1799      C1800   1.385       .  A
C1800      C1801   1.408       .  A
C1800      N1806   1.347       .  A
C1801      C1802   1.407       .  A
C1801      H1810   1.082       .  S
C1802      C1805   1.384       .  A
N1803      C1804   1.352       .  A
N1803      H1813   1.045       .  S
C1804      C1805   1.398       .  A
C1805      H1811   1.082       .  S
N1806      C1807   1.357       .  A
N1806      H1814   1.045       .  S
C1807      C1808   1.391       .  A
C1808      H1812   1.083       .  S
C1815      C1820   1.385       .  A
C1815      C1816   1.404       .  A
C1815      N1821   1.345       .  A
C1816      C1817   1.404       .  A
C1816      H1827   1.082       .  S
C1817      C1826   1.379       .  A
C1817      C1818   1.385       .  A
C1818      C1819   1.399       .  A
C1818      N1824   1.340       .  A
C1819      C1820   1.399       .  A
C1819      H1828   1.083       .  S
C1820      C1823   1.371       .  A
N1821      C1822   1.355       .  A
N1821      H1831   1.045       .  S
C1822      C1823   1.392       .  A
C1823      H1829   1.083       .  S
N1824      C1825   1.354       .  A
N1824      H1832   1.045       .  S
C1825      C1826   1.395       .  A
C1826      H1830   1.082       .  S
C1833      C1838   1.385       .  A
C1833      C1834   1.401       .  A
C1833      N1839   1.340       .  A
C1834      C1835   1.399       .  A
C1834      H1845   1.082       .  S
C1835      C1844   1.375       .  A
C1835      C1836   1.383       .  A
C1836      C1837   1.406       .  A
C1836      N1842   1.343       .  A
C1837      C1838   1.403       .  A
C1837      H1846   1.082       .  S
C1838      C1841   1.381       .  A
N1839      C1840   1.354       .  A
N1839      H1849   1.045       .  S
C1840      C1841   1.396       .  A
C1841      H1847   1.082       .  S
N1842      C1843   1.361       .  A
N1842      H1850   1.042       .  S
C1843      C1844   1.395       .  A
C1844      H1848   1.082       .  S
C1851      C1856   1.384       .  A
C1851      C1852   1.408       .  A
C1851      N1857   1.347       .  A
C1852      C1853   1.407       .  A
C1852      H1863   1.082       .  S
C1853      C1862   1.384       .  A
C1853      C1854   1.385       .  A
C1854      C1855   1.398       .  A
C1854      N1860   1.339       .  A
C1855      C1856   1.397       .  A
C1855      H1864   1.083       .  S
C1856      C1859   1.372       .  A
N1857      C1858   1.358       .  A
N1857      H1867   1.045       .  S
C1858      C1859   1.391       .  A
C1859      H1865   1.083       .  S
N1860      C1861   1.353       .  A
N1860      H1868   1.045       .  S
C1861      C1862   1.398       .  A
C1862      H1866   1.082       .  S
C1869      C1874   1.384       .  A
C1869      C1870   1.405       .  A
C1869      N1875   1.343       .  A
C1870      C1871   1.403       .  A
C1870      H1881   1.082       .  S
C1871      C1880   1.381       .  A
C1871      C1872   1.384       .  A
C1872      C1873   1.404       .  A
C1872      N1878   1.342       .  A
C1873      C1874   1.402       .  A
C1873      H1882   1.082       .  S
C1874      C1877   1.379       .  A
N1875      C1876   1.356       .  A
N1875      H1885   1.045       .  S
C1876      C1877   1.394       .  A
C1877      H1883   1.082       .  S
N1878      C1879   1.356       .  A
N1878      H1886   1.045       .  S
C1879      C1880   1.395       .  A
C1880      H1884   1.082       .  S
C1887      C1892   1.385       .  A
C1887      C1888   1.400       .  A
C1887      N1893   1.338       .  A
C1888      C1889   1.399       .  A
C1888      H1899   1.082       .  S
C1889      C1898   1.377       .  A
C1889      C1890   1.384       .  A
C1890      C1891   1.407       .  A
C1890      N1896   1.344       .  A
C1891      C1892   1.405       .  A
C1891      H1900   1.082       .  S
C1892      C1895   1.384       .  A
N1893      C1894   1.353       .  A
N1893      H1903   1.045       .  S
C1894      C1895   1.396       .  A
C1895      H1901   1.082       .  S
N1896      C1897   1.357       .  A
N1896      H1904   1.045       .  S
C1897      C1898   1.394       .  A
C1898      H1902   1.082       .  S
C1905      C1910   1.385       .  A
C1905      C1906   1.405       .  A
C1905      N1911   1.346       .  A
C1906      C1907   1.405   1_565  A
C1906      H1917   1.082       .  S
C1907      C1916   1.381       .  A
C1907      C1908   1.385       .  A
C1908      C1909   1.397   1_545  A
C1908      N1914   1.338       .  A
C1909      C1910   1.396       .  A
C1909      H1918   1.083       .  S
C1910      C1913   1.369       .  A
N1911      C1912   1.356       .  A
N1911      H1921   1.045       .  S
C1912      C1913   1.391       .  A
C1913      H1919   1.083       .  S
N1914      C1915   1.352       .  A
N1914      H1922   1.045       .  S
C1915      C1916   1.396       .  A
C1916      H1920   1.082       .  S
C1923      C1928   1.384       .  A
C1923      C1924   1.408       .  A
C1923      N1929   1.346       .  A
C1924      C1925   1.407       .  A
C1924      H1935   1.082       .  S
C1925      C1934   1.385       .  A
C1925      C1926   1.385       .  A
C1926      C1927   1.399       .  A
C1926      N1932   1.338       .  A
C1927      C1928   1.397       .  A
C1927      H1936   1.083       .  S
C1928      C1931   1.373       .  A
N1929      C1930   1.357       .  A
N1929      H1939   1.045       .  S
C1930      C1931   1.392       .  A
C1931      H1937   1.083       .  S
N1932      C1933   1.353       .  A
N1932      H1940   1.045       .  S
C1933      C1934   1.398       .  A
C1934      H1938   1.082       .  S
C1941      C1946   1.382       .  A
C1941      C1942   1.406       .  A
C1941      N1947   1.344       .  A
C1942      C1943   1.405       .  A
C1942      H1953   1.082       .  S
C1943      C1952   1.383       .  A
C1943      C1944   1.384       .  A
C1944      C1945   1.403       .  A
C1944      N1950   1.342       .  A
C1945      C1946   1.401       .  A
C1945      H1954   1.082       .  S
C1946      C1949   1.377       .  A
N1947      C1948   1.359       .  A
N1947      H1957   1.043       .  S
C1948      C1949   1.398       .  A
C1949      H1955   1.082       .  S
N1950      C1951   1.355       .  A
N1950      H1958   1.045       .  S
C1951      C1952   1.397       .  A
C1952      H1956   1.082       .  S
C1959      C1964   1.384       .  A
C1959      C1960   1.401       .  A
C1959      N1965   1.341       .  A
C1960      C1961   1.400       .  A
C1960      H1971   1.082       .  S
C1961      C1970   1.375       .  A
C1961      C1962   1.384       .  A
C1962      C1963   1.408       .  A
C1962      N1968   1.347       .  A
C1963      C1964   1.407       .  A
C1963      H1972   1.082       .  S
C1964      C1967   1.385       .  A
N1965      C1966   1.355       .  A
N1965      H1975   1.045       .  S
C1966      C1967   1.398       .  A
C1967      H1973   1.082       .  S
N1968      C1969   1.357       .  A
N1968      H1976   1.045       .  S
C1969      C1970   1.393       .  A
C1970      H1974   1.083       .  S
C1977      C1982   1.385       .  A
C1977      C1978   1.402       .  A
C1977      N1983   1.344       .  A
C1978      C1979   1.401       .  A
C1978      H1989   1.082       .  S
C1979      C1988   1.374       .  A
C1979      C1980   1.385       .  A
C1980      C1981   1.404       .  A
C1980      N1986   1.345       .  A
C1981      C1982   1.404       .  A
C1981      H1990   1.082       .  S
C1982      C1985   1.378       .  A
N1983      C1984   1.355       .  A
N1983      H1993   1.045       .  S
C1984      C1985   1.396       .  A
C1985      H1991   1.082       .  S
N1986      C1987   1.356       .  A
N1986      H1994   1.045       .  S
C1987      C1988   1.393       .  A
C1988      H1992   1.082       .  S
C1995      C2000   1.384       .  A
C1995      C1996   1.408       .  A
C1995      N2001   1.347       .  A
C1996      C1997   1.408       .  A
C1996      H2007   1.082       .  S
C1997      C2006   1.385       .  A
C1997      C1998   1.385       .  A
C1998      C1999   1.400       .  A
C1998      N2004   1.340       .  A
C1999      C2000   1.398       .  A
C1999      H2008   1.082       .  S
C2000      C2003   1.373       .  A
N2001      C2002   1.358       .  A
N2001      H2011   1.045       .  S
C2002      C2003   1.392       .  A
C2003      H2009   1.083       .  S
N2004      C2005   1.354       .  A
N2004      H2012   1.045       .  S
C2005      C2006   1.398       .  A
C2006      H2010   1.082       .  S
C2013      C2018   1.383       .  A
C2013      C2014   1.405       .  A
C2013      N2019   1.344       .  A
C2014      C2015   1.404       .  A
C2014      H2025   1.082       .  S
C2015      C2024   1.382       .  A
C2015      C2016   1.384       .  A
C2016      C2017   1.403       .  A
C2016      N2022   1.342       .  A
C2017      C2018   1.401       .  A
C2017      H2026   1.082       .  S
C2018      C2021   1.376       .  A
N2019      C2020   1.359       .  A
N2019      H2029   1.043       .  S
C2020      C2021   1.396       .  A
C2021      H2027   1.082       .  S
N2022      C2023   1.355       .  A
N2022      H2030   1.045       .  S
C2023      C2024   1.396       .  A
C2024      H2028   1.082       .  S
C2031      C2036   1.385       .  A
C2031      C2032   1.405       .  A
C2031      N2037   1.346       .  A
C2032      C2033   1.405       .  A
C2032      H2043   1.082       .  S
C2033      C2042   1.381       .  A
C2033      C2034   1.385       .  A
C2034      C2035   1.402       .  A
C2034      N2040   1.343       .  A
C2035      C2036   1.401       .  A
C2035      H2044   1.082       .  S
C2036      C2039   1.376       .  A
N2037      C2038   1.356       .  A
N2037      H2047   1.045       .  S
C2038      C2039   1.394       .  A
C2039      H2045   1.082       .  S
N2040      C2041   1.355       .  A
N2040      H2048   1.045       .  S
C2041      C2042   1.396       .  A
C2042      H2046   1.082       .  S
C2049      C2054   1.385       .  A
C2049      C2050   1.402       .  A
C2049      N2055   1.342       .  A
C2050      C2051   1.401       .  A
C2050      H2061   1.082       .  S
C2051      C2060   1.378       .  A
C2051      C2052   1.385       .  A
C2052      C2053   1.405       .  A
C2052      N2058   1.344       .  A
C2053      C2054   1.404       .  A
C2053      H2062   1.082       .  S
C2054      C2057   1.380       .  A
N2055      C2056   1.355       .  A
N2055      H2065   1.045       .  S
C2056      C2057   1.395       .  A
C2057      H2063   1.082       .  S
N2058      C2059   1.356       .  A
N2058      H2066   1.045       .  S
C2059      C2060   1.394       .  A
C2060      H2064   1.082       .  S
C2067      C2072   1.385       .  A
C2067      C2068   1.399       .  A
C2067      N2073   1.340       .  A
C2068      C2069   1.398       .  A
C2068      H2079   1.083       .  S
C2069      C2078   1.372       .  A
C2069      C2070   1.384       .  A
C2070      C2071   1.409       .  A
C2070      N2076   1.348       .  A
C2071      C2072   1.409       .  A
C2071      H2080   1.082       .  S
C2072      C2075   1.385       .  A
N2073      C2074   1.354       .  A
N2073      H2083   1.045       .  S
C2074      C2075   1.398       .  A
C2075      H2081   1.082       .  S
N2076      C2077   1.358       .  A
N2076      H2084   1.045       .  S
C2077      C2078   1.391       .  A
C2078      H2082   1.083       .  S
C2085      C2090   1.384       .  A
C2085      C2086   1.403       .  A
C2085      N2091   1.340       .  A
C2086      C2087   1.400       .  A
C2086      H2097   1.082       .  S
C2087      C2096   1.380       .  A
C2087      C2088   1.384       .  A
C2088      C2089   1.407       .  A
C2088      N2094   1.343       .  A
C2089      C2090   1.404       .  A
C2089      H2098   1.082       .  S
C2090      C2093   1.384       .  A
N2091      C2092   1.354       .  A
N2091      H2101   1.045       .  S
C2092      C2093   1.397       .  A
C2093      H2099   1.082       .  S
N2094      C2095   1.357       .  A
N2094      H2102   1.045       .  S
C2095      C2096   1.394       .  A
C2096      H2100   1.082       .  S
C2103      C2108   1.385       .  A
C2103      C2104   1.408       .  A
C2103      N2109   1.349       .  A
C2104      C2105   1.408   1_545  A
C2104      H2115   1.082       .  S
C2105      C2114   1.383       .  A
C2105      C2106   1.385       .  A
C2106      C2107   1.397   1_565  A
C2106      N2112   1.339       .  A
C2107      C2108   1.397       .  A
C2107      H2116   1.083       .  S
C2108      C2111   1.369       .  A
N2109      C2110   1.358       .  A
N2109      H2119   1.044       .  S
C2110      C2111   1.391       .  A
C2111      H2117   1.083       .  S
N2112      C2113   1.353       .  A
N2112      H2120   1.045       .  S
C2113      C2114   1.397       .  A
C2114      H2118   1.082       .  S
C2121      C2126   1.383       .  A
C2121      C2122   1.412       .  A
C2121      N2127   1.350       .  A
C2122      C2123   1.412       .  A
C2122      H2133   1.082       .  S
C2123      C2132   1.389       .  A
C2123      C2124   1.384       .  A
C2124      C2125   1.403       .  A
C2124      N2130   1.343       .  A
C2125      C2126   1.401       .  A
C2125      H2134   1.082       .  S
C2126      C2129   1.377       .  A
N2127      C2128   1.361       .  A
N2127      H2137   1.044       .  S
C2128      C2129   1.396       .  A
C2129      H2135   1.082       .  S
N2130      C2131   1.355       .  A
N2130      H2138   1.045       .  S
C2131      C2132   1.401       .  A
C2132      H2136   1.082       .  S
C2139      C2144   1.383       .  A
C2139      C2140   1.403       .  A
C2139      N2145   1.344       .  A
C2140      C2141   1.402       .  A
C2140      H2151   1.082       .  S
C2141      C2150   1.376       .  A
C2141      C2142   1.384       .  A
C2142      C2143   1.407       .  A
C2142      N2148   1.348       .  A
C2143      C2144   1.407       .  A
C2143      H2152   1.082       .  S
C2144      C2147   1.380       .  A
N2145      C2146   1.357       .  A
N2145      H2155   1.045       .  S
C2146      C2147   1.402       .  A
C2147      H2153   1.081       .  S
N2148      C2149   1.358       .  A
N2148      H2156   1.045       .  S
C2149      C2150   1.395       .  A
C2150      H2154   1.082       .  S
C2157      C2162   1.384       .  A
C2157      C2158   1.400       .  A
C2157      N2163   1.341       .  A
C2158      C2159   1.400       .  A
C2158      H2169   1.082       .  S
C2159      C2168   1.374       .  A
C2159      C2160   1.385       .  A
C2160      C2161   1.402       .  A
C2160      N2166   1.343       .  A
C2161      C2162   1.402       .  A
C2161      H2170   1.082       .  S
C2162      C2165   1.375       .  A
N2163      C2164   1.354       .  A
N2163      H2173   1.045       .  S
C2164      C2165   1.399       .  A
C2165      H2171   1.081       .  S
N2166      C2167   1.355       .  A
N2166      H2174   1.045       .  S
C2167      C2168   1.393       .  A
C2168      H2172   1.082       .  S
C2175      C2180   1.383       .  A
C2175      C2176   1.401       .  A
C2175      N2181   1.341       .  A
C2176      C2177   1.400       .  A
C2176      H2187   1.082       .  S
C2177      C2186   1.374       .  A
C2177      C2178   1.384       .  A
C2178      C2179   1.407       .  A
C2178      N2184   1.346       .  A
C2179      C2180   1.406       .  A
C2179      H2188   1.082       .  S
C2180      C2183   1.381       .  A
N2181      C2182   1.356       .  A
N2181      H2191   1.044       .  S
C2182      C2183   1.398       .  A
C2183      H2189   1.082       .  S
N2184      C2185   1.357       .  A
N2184      H2192   1.045       .  S
C2185      C2186   1.393       .  A
C2186      H2190   1.083       .  S
C2193      C2198   1.385       .  A
C2193      C2194   1.403       .  A
C2193      N2199   1.343       .  A
C2194      C2195   1.402       .  A
C2194      H2205   1.082       .  S
C2195      C2204   1.376   1_554  A
C2195      C2196   1.386   1_554  A
C2196      C2197   1.400       .  A
C2196      N2202   1.341       .  A
C2197      C2198   1.399   1_556  A
C2197      H2206   1.082       .  S
C2198      C2201   1.372       .  A
N2199      C2200   1.354       .  A
N2199      H2209   1.045       .  S
C2200      C2201   1.392       .  A
C2201      H2207   1.082   1_554  S
N2202      C2203   1.353       .  A
N2202      H2210   1.045       .  S
C2203      C2204   1.393       .  A
C2204      H2208   1.083   1_556  S
C2211      C2216   1.384       .  A
C2211      C2212   1.403       .  A
C2211      N2217   1.344       .  A
C2212      C2213   1.402       .  A
C2212      H2223   1.082       .  S
C2213      C2222   1.377       .  A
C2213      C2214   1.383       .  A
C2214      C2215   1.410       .  A
C2214      N2220   1.349       .  A
C2215      C2216   1.410       .  A
C2215      H2224   1.082       .  S
C2216      C2219   1.386       .  A
N2217      C2218   1.355       .  A
N2217      H2227   1.045       .  S
C2218      C2219   1.399       .  A
C2219      H2225   1.082       .  S
N2220      C2221   1.360       .  A
N2220      H2228   1.044       .  S
C2221      C2222   1.397       .  A
C2222      H2226   1.082       .  S
C2229      C2234   1.385       .  A
C2229      C2230   1.404       .  A
C2229      N2235   1.346       .  A
C2230      C2231   1.405       .  A
C2230      H2241   1.082       .  S
C2231      C2240   1.377       .  A
C2231      C2232   1.383       .  A
C2232      C2233   1.403       .  A
C2232      N2238   1.345       .  A
C2233      C2234   1.403       .  A
C2233      H2242   1.082       .  S
C2234      C2237   1.376       .  A
N2235      C2236   1.356       .  A
N2235      H2245   1.045       .  S
C2236      C2237   1.394       .  A
C2237      H2243   1.082       .  S
N2238      C2239   1.357       .  A
N2238      H2246   1.045       .  S
C2239      C2240   1.401       .  A
C2240      H2244   1.081       .  S
C2247      C2252   1.384   1_556  A
C2247      C2248   1.403       .  A
C2247      N2253   1.345       .  A
C2248      C2249   1.403   1_565  A
C2248      H2259   1.082       .  S
C2249      C2258   1.376       .  A
C2249      C2250   1.385   1_556  A
C2250      C2251   1.402       .  A
C2250      N2256   1.343       .  A
C2251      C2252   1.402   1_545  A
C2251      H2260   1.082       .  S
C2252      C2255   1.374       .  A
N2253      C2254   1.356   1_556  A
N2253      H2263   1.044       .  S
C2254      C2255   1.397       .  A
C2255      H2261   1.082       .  S
N2256      C2257   1.354   1_554  A
N2256      H2264   1.045       .  S
C2257      C2258   1.396       .  A
C2258      H2262   1.082       .  S
C2265      C2270   1.384       .  A
C2265      C2266   1.405       .  A
C2265      N2271   1.344       .  A
C2266      C2267   1.404       .  A
C2266      H2277   1.082       .  S
C2267      C2276   1.378       .  A
C2267      C2268   1.383       .  A
C2268      C2269   1.402       .  A
C2268      N2274   1.341       .  A
C2269      C2270   1.400       .  A
C2269      H2278   1.082       .  S
C2270      C2273   1.377       .  A
N2271      C2272   1.357       .  A
N2271      H2281   1.045       .  S
C2272      C2273   1.393       .  A
C2273      H2279   1.082       .  S
N2274      C2275   1.357       .  A
N2274      H2282   1.044       .  S
C2275      C2276   1.398       .  A
C2276      H2280   1.082       .  S
C2283      C2288   1.384       .  A
C2283      C2284   1.407       .  A
C2283      N2289   1.346       .  A
C2284      C2285   1.406       .  A
C2284      H2295   1.082       .  S
C2285      C2294   1.383       .  A
C2285      C2286   1.383       .  A
C2286      C2287   1.402       .  A
C2286      N2292   1.341       .  A
C2287      C2288   1.400       .  A
C2287      H2296   1.082       .  S
C2288      C2291   1.377       .  A
N2289      C2290   1.357       .  A
N2289      H2299   1.045       .  S
C2290      C2291   1.394       .  A
C2291      H2297   1.082       .  S
N2292      C2293   1.357       .  A
N2292      H2300   1.044       .  S
C2293      C2294   1.398       .  A
C2294      H2298   1.082       .  S
C2301      C2306   1.383   1_554  A
C2301      C2302   1.405       .  A
C2301      N2307   1.346       .  A
C2302      C2303   1.405   1_565  A
C2302      H2313   1.082       .  S
C2303      C2312   1.377       .  A
C2303      C2304   1.385   1_554  A
C2304      C2305   1.401   1_545  A
C2304      N2310   1.344       .  A
C2305      C2306   1.402       .  A
C2305      H2314   1.082       .  S
C2306      C2309   1.373       .  A
N2307      C2308   1.356   1_554  A
N2307      H2317   1.045       .  S
C2308      C2309   1.395       .  A
C2309      H2315   1.082       .  S
N2310      C2311   1.354   1_556  A
N2310      H2318   1.045       .  S
C2311      C2312   1.397       .  A
C2312      H2316   1.082       .  S
C2319      C2324   1.385   1_554  A
C2319      C2320   1.402       .  A
C2319      N2325   1.341       .  A
C2320      C2321   1.401       .  A
C2320      H2331   1.082       .  S
C2321      C2330   1.378       .  A
C2321      C2322   1.384   1_554  A
C2322      C2323   1.404       .  A
C2322      N2328   1.342       .  A
C2323      C2324   1.402       .  A
C2323      H2332   1.082       .  S
C2324      C2327   1.379       .  A
N2325      C2326   1.353   1_554  A
N2325      H2335   1.045       .  S
C2326      C2327   1.393       .  A
C2327      H2333   1.082       .  S
N2328      C2329   1.358   1_556  A
N2328      H2336   1.044       .  S
C2329      C2330   1.394       .  A
C2330      H2334   1.082       .  S
