geometry optimzed in LAMMPS
_audit_creation_date              2020-11-30 
_audit_creation_method            'lammps2cif' 
_symmetry_space_group_name_H-M    'P1' 
_symmetry_Int_Tables_number       1 
_symmetry_cell_setting            triclinic 
loop_ 
_symmetry_equiv_pos_as_xyz 
  x,y,z 
_cell_length_a                    44.6595717 
_cell_length_b                    39.0427311659362 
_cell_length_c                    43.19898181701026 
_cell_angle_alpha                 90.75710175398042 
_cell_angle_beta                  88.51931624271275 
_cell_angle_gamma                 91.16102413609802 
loop_ 
_atom_site_label 
_atom_site_type_symbol 
_atom_site_fract_x 
_atom_site_fract_y 
_atom_site_fract_z 
_atom_site_charge 
C1          C  0.78391353  0.22544283  0.09607665     0.86400
C2          C  0.76863848  0.25301186  0.07796042    -0.53900
C3          C  0.75406706  0.27636445  0.09599785     0.09300
C4          C  0.75612094  0.27022414  0.13113675     0.20200
C5          C  0.80478174  0.24517255  0.11842937    -0.54600
C6          C  0.79019483  0.26861426  0.13728376     0.09400
C7          C  0.75906147  0.21012413  0.11719024    -0.54100
C8          C  0.74481755  0.23316809  0.13632215     0.03900
H9          H  0.76877006  0.25366775  0.05280596     0.14500
H10         H  0.74345794  0.28939752  0.14497094     0.00200
H11         H  0.82854664  0.24030190  0.11984797     0.14800
H12         H  0.75421704  0.18286410  0.11714348     0.14600
C13         C  0.78689541  0.21910623  0.39219558     0.86400
C14         C  0.76202638  0.20451557  0.37176522    -0.53900
C15         C  0.74405131  0.22862879  0.35989315     0.09300
C16         C  0.75173833  0.26528859  0.37084727     0.20200
C17         C  0.80352958  0.24575193  0.37148478    -0.54600
C18         C  0.78475224  0.26999769  0.36021430     0.09400
C19         C  0.77080132  0.24025533  0.41736036    -0.54100
C20         C  0.75264876  0.26450330  0.40645736     0.09900
H21         H  0.76003805  0.17751601  0.36548490     0.14500
H22         H  0.73660789  0.28484682  0.36183200     0.00200
H23         H  0.82735782  0.24491887  0.36589464     0.14800
H24         H  0.77401072  0.23683063  0.44195218     0.14600
O25         O  0.84413655  0.32939127  0.27974146    -0.81900
C26         C  0.78210419  0.42940405  0.21381158     0.97400
O27         O  0.77124256  0.40914849  0.23401350    -0.71100
O28         O  0.78478604  0.34495339  0.22539193    -0.74600
Al29       Al  0.78790406  0.37518171  0.25967396     1.49000
C30         C  0.80294233  0.32625355  0.21050253     0.92700
O31         O  0.87125754  0.37507124  0.20671410    -0.80900
O32         O  0.85994370  0.42972954  0.28142184    -0.74400
Al33       Al  0.85440462  0.35565005  0.24390832     1.90100
O34         O  0.86902556  0.42836048  0.22099120    -0.73500
O35         O  0.80428808  0.44921595  0.27347768    -0.73300
O36         O  0.81005289  0.43615160  0.21193694    -0.79000
O37         O  0.78536453  0.40410327  0.29619150    -0.77200
O38         O  0.82583349  0.38700701  0.25016245    -1.13300
O39         O  0.79663424  0.33954620  0.28661926    -0.72500
C40         C  0.81968135  0.32407561  0.29404403     0.98200
C41         C  0.88121177  0.40527098  0.20523068     0.94600
Al42       Al  0.83499635  0.43158929  0.24705681     1.55600
O43         O  0.83054271  0.32659547  0.21675904    -0.77200
C44         C  0.78850374  0.43618774  0.29479193     0.98700
C45         C  0.88121454  0.40918814  0.28494971     0.93600
O46         O  0.88249215  0.38084911  0.26991266    -0.82500
O47         O  0.85200088  0.17370434  0.46920775    -0.81900
C48         C  0.79010237  0.07271682  0.04845938     0.97400
O49         O  0.78543505  0.10204939  0.03855852    -0.71100
O50         O  0.79870336  0.16147927  0.01708693    -0.74600
Al51       Al  0.80151098  0.12684000  0.49589506     1.49000
C52         C  0.82174471  0.17600841  0.02821783     0.92700
O53         O  0.88857984  0.11867881  0.01083870    -0.80900
O54         O  0.87856991  0.06573037  0.47971763    -0.74400
Al55       Al  0.85807034  0.13791950  0.98543588     1.90100
O56         O  0.86343481  0.07910675  0.03703438    -0.73500
O57         O  0.82276958  0.05078511  0.47323175    -0.73300
O58         O  0.80826019  0.05342407  0.03430442    -0.79000
O59         O  0.78727117  0.08854532  0.47135719    -0.77200
O60         O  0.83838213  0.11162291  0.49960783    -1.13300
O61         O  0.81021959  0.14793656  0.45730156    -0.72500
C62         C  0.82965424  0.17101028  0.45225276     0.98200
C63         C  0.88691355  0.09692811  0.03236023     0.94600
Al64       Al  0.84476370  0.06752003  0.50706075     1.55600
O65         O  0.84773865  0.16718839  0.01964496    -0.77200
C66         C  0.79876733  0.06069126  0.46220451     0.98700
C67         C  0.88971770  0.08556203  0.45932012     0.93600
O68         O  0.88454800  0.11738077  0.45967476    -0.82500
C69         C  0.00759744  0.45247963  0.41076087     0.86400
C70         C  0.98604165  0.47949572  0.42436438    -0.53900
C71         C  0.98119629  0.00816032  0.40376024     0.09300
C72         C  0.99104304  0.99861830  0.37070173     0.20200
C73         C  0.98903731  0.43350694  0.38619702    -0.54600
C74         C  0.97729531  0.45465863  0.36462458     0.09400
C75         C  0.03131696  0.47266302  0.39239141    -0.54100
C76         C  0.02552230  0.99845222  0.37155135     0.09900
H77         H  0.98452664  0.98922703  0.44994962     0.14500
H78         H  0.98205357  0.01594806  0.35322915     0.00200
H79         H  0.98365003  0.40633645  0.38748191     0.14800
H80         H  0.05504374  0.46955105  0.39617864     0.14600
O81         O  0.15416321  0.32048434  0.47642071    -0.81900
C82         C  0.21404648  0.43093092  0.04053649     0.97400
O83         O  0.22260278  0.40419406  0.02694256    -0.71100
O84         O  0.19471104  0.34796354  0.04594708    -0.74600
Al85       Al  0.20190200  0.36825506  0.00634557     1.49000
C86         C  0.17306837  0.32785605  0.05276393     0.92700
O87         O  0.11853100  0.38416082  0.04780840    -0.80900
O88         O  0.11668061  0.42350268  0.49444929    -0.74400
Al89       Al  0.13276923  0.36070175  0.01095156     1.90100
O90         O  0.13090199  0.43617864  0.03231017    -0.73500
O91         O  0.17066901  0.44665803  0.47763636    -0.73300
O92         O  0.18841054  0.44244267  0.03646708    -0.79000
O93         O  0.20936356  0.41387718  0.46914260    -0.77200
O94         O  0.16578592  0.38744545  0.00690712    -1.13300
O95         O  0.18967424  0.35291543  0.45635223    -0.72500
C96         C  0.17334666  0.32646839  0.45503404     0.98200
C97         C  0.11561620  0.41643874  0.04969026     0.94600
Al98       Al  0.16277504  0.43253613  0.00322573     1.55600
O99         O  0.14986269  0.32716079  0.03677443    -0.77200
C100        C  0.19487806  0.44029939  0.46333543     0.98700
C101        C  0.10361527  0.40054906  0.47815206     0.93600
O102        O  0.11374936  0.37049286  0.47560301    -0.82500
O103        O  0.13612682  0.15285554  0.29590565    -0.81900
C104        C  0.20607858  0.07529961  0.21060130     0.97400
O105        O  0.21445256  0.09977711  0.22758579    -0.71100
O106        O  0.18333307  0.15356344  0.21628801    -0.74600
Al107      Al  0.19353943  0.13109381  0.25314210     1.49000
C108        C  0.16129868  0.17304663  0.21401783     0.92700
O109        O  0.11066567  0.11190112  0.21949663    -0.80900
O110        O  0.13548962  0.05989554  0.29101850    -0.74400
Al111      Al  0.12500372  0.13175526  0.25702925     1.90100
O112        O  0.12313756  0.05886449  0.22938746    -0.73500
O113        O  0.19306787  0.05743767  0.27847935    -0.73300
O114        O  0.18121132  0.06016719  0.21558780    -0.79000
O115        O  0.20702168  0.11034852  0.28970126    -0.77200
O116        O  0.15892477  0.10830109  0.25449243    -1.13300
O117        O  0.18087035  0.16816945  0.27866132    -0.72500
C118        C  0.16020912  0.16993180  0.29908337     0.98200
C119        C  0.10733749  0.07988031  0.21527600     0.94600
Al120      Al  0.15831264  0.06277840  0.25358481     1.55600
O121        O  0.13930401  0.17074430  0.23295974    -0.77200
C122        C  0.20783339  0.07860783  0.29481120     0.98700
C123        C  0.11007899  0.07287435  0.29505976     0.93600
O124        O  0.10269623  0.09885045  0.28040193    -0.82500
C125        C  0.20547725  0.23498680  0.34614083     0.86400
C126        C  0.22277116  0.21058211  0.36659798    -0.53900
C127        C  0.24283106  0.22684670  0.38574687     0.09300
C128        C  0.24415717  0.26620178  0.38168411     0.20200
C129        C  0.19104335  0.26064152  0.36891548    -0.54600
C130        C  0.21133391  0.27693013  0.38766717     0.09400
C131        C  0.22993483  0.25547057  0.32879927    -0.54100
C132        C  0.25008837  0.27201290  0.34683654     0.09900
H133        H  0.21855676  0.18309296  0.36689165     0.14500
H134        H  0.26027520  0.28013483  0.39661696     0.00200
H135        H  0.16721885  0.26567523  0.36984669     0.14800
H136        H  0.23148136  0.25675610  0.30366881     0.14600
C137        C  0.19836393  0.22370937  0.14979030     0.86400
C138        C  0.21771560  0.24182281  0.17396321    -0.53900
C139        C  0.23732862  0.26543032  0.16209801     0.09300
C140        C  0.23664970  0.26849573  0.12678636     0.20200
C141        C  0.18351453  0.25259953  0.13185531    -0.54600
C142        C  0.20400103  0.27596052  0.11952564     0.09400
C143        C  0.22099555  0.20861228  0.12637464    -0.54100
C144        C  0.24121714  0.23197514  0.11431927     0.09900
H145        H  0.21635858  0.23612336  0.19853155     0.14500
H146        H  0.25320349  0.28733654  0.11703925     0.00200
H147        H  0.15956766  0.25366956  0.12846151     0.14800
H148        H  0.21995064  0.18191016  0.11918616     0.14600
C149        C  0.97616454  0.02701929  0.09840079     0.86400
C150        C  0.95688186  0.00044917  0.11579601    -0.53900
C151        C  0.97018114  0.47610596  0.13592871     0.09300
C152        C  0.00392384  0.48502016  0.13714007     0.20200
C153        C  0.99361933  0.04648031  0.12334245    -0.54600
C154        C  0.01029092  0.02629347  0.14157697     0.09400
C155        C  0.00024208  0.00561562  0.08101300    -0.54100
C156        C  0.01419896  0.48529538  0.10306479     0.09900
H157        H  0.93056881  0.49471330  0.11530320     0.14500
H158        H  0.01675968  0.46729239  0.15138646     0.00200
H159        H  0.99385699  0.07424552  0.12507462     0.14800
H160        H  0.00407320  0.51031257  0.06063045     0.14600
O161        O  0.35135396  0.42507667  0.20954106    -0.81900
C162        C  0.28698485  0.32988466  0.28547559     0.97400
O163        O  0.27600978  0.35192231  0.26811458    -0.71100
O164        O  0.29919113  0.41099006  0.28145937    -0.74600
Al165      Al  0.29391785  0.38783972  0.24387504     1.49000
C166        C  0.32036634  0.43060783  0.28947317     0.92700
O167        O  0.37900638  0.37824163  0.28047688    -0.80900
O168        O  0.35749872  0.32918940  0.20427162    -0.74400
Al169      Al  0.36265018  0.39998924  0.24520328     1.90100
O170        O  0.37093041  0.32565741  0.26420099    -0.73500
O171        O  0.30068995  0.31580780  0.21894622    -0.73300
O172        O  0.31362272  0.32013293  0.28103534    -0.79000
O173        O  0.28451893  0.36583163  0.20562879    -0.77200
O174        O  0.33075681  0.37162186  0.24380210    -1.13300
O175        O  0.30332757  0.42721874  0.22022860    -0.72500
C176        C  0.32582408  0.43634362  0.20396449     0.98200
C177        C  0.38551465  0.34689333  0.28011755     0.94600
Al178      Al  0.33525562  0.32650467  0.24230625     1.55600
O179        O  0.34466311  0.43218202  0.27384070    -0.77200
C180        C  0.28495324  0.33383790  0.20194877     0.98700
C181        C  0.38196335  0.34600814  0.20176903     0.93600
O182        O  0.38675587  0.37281781  0.21779215    -0.82500
O183        O  0.34857606  0.09346758  0.02865788    -0.81900
C184        C  0.29176451  0.20127867  0.45456687     0.97400
O185        O  0.27580445  0.17788677  0.46687399    -0.71100
O186        O  0.29468180  0.11919188  0.45126801    -0.74600
Al187      Al  0.28902133  0.13245926  0.00650811     1.49000
C188        C  0.30893330  0.09229049  0.44754146     0.92700
O189        O  0.37253553  0.13702246  0.46052799    -0.80900
O190        O  0.35792248  0.18769379  0.03951384    -0.74400
Al191      Al  0.35102305  0.11632186  0.49458203     1.90100
O192        O  0.37160095  0.18959904  0.48005867    -0.73500
O193        O  0.30030369  0.20226517  0.03637429    -0.73300
O194        O  0.31752410  0.20815724  0.46458484    -0.79000
O195        O  0.28509515  0.15000746  0.04674828    -0.77200
O196        O  0.32592698  0.14898897  0.00179722    -1.13300
O197        O  0.29968109  0.09078466  0.02598751    -0.72500
C198        C  0.32367939  0.08107611  0.03762914     0.98200
C199        C  0.38321216  0.16734936  0.46210739     0.94600
Al200      Al  0.33228362  0.19399287  0.00596298     1.55600
O201        O  0.33047720  0.08580091  0.46494633    -0.77200
C202        C  0.28675127  0.18110405  0.05400929     0.98700
C203        C  0.38151791  0.17027353  0.03776451     0.93600
O204        O  0.38450083  0.14630036  0.01788443    -0.82500
C205        C  0.28791757  0.02029070  0.39007690     0.86400
C206        C  0.26628279  0.99966536  0.41107387    -0.53900
C207        C  0.24506718  0.48107111  0.40066964     0.09300
C208        C  0.24967176  0.48235926  0.36535232     0.20200
C209        C  0.30249974  0.49436109  0.37551159    -0.54600
C210        C  0.28285394  0.47409649  0.35932820     0.09400
C211        C  0.26783586  0.04042975  0.36860001    -0.54100
C212        C  0.24755713  0.02056103  0.35285461     0.09900
H213        H  0.26757086  0.99999219  0.43617409     0.14500
H214        H  0.23390758  0.46536741  0.35250719     0.00200
H215        H  0.32666116  0.49207361  0.37361883     0.14800
H216        H  0.27034457  0.06790703  0.36604220     0.14600
C217        C  0.28751206  0.03522395  0.10559969     0.86400
C218        C  0.26539278  0.05160666  0.12901885    -0.53900
C219        C  0.24592602  0.02870044  0.14304248     0.09300
C220        C  0.24989693  0.48998900  0.13751275     0.20200
C221        C  0.30115009  0.51169948  0.12798481    -0.54600
C222        C  0.28370776  0.48762528  0.14347038     0.09400
C223        C  0.26749709  0.01549836  0.08317578    -0.54100
C224        C  0.24721927  0.48856287  0.10236722     0.09900
H225        H  0.26499046  0.07900928  0.13348530     0.14500
H226        H  0.23571740  0.47042448  0.14970997     0.00200
H227        H  0.32526415  0.51408283  0.12998417     0.14800
H228        H  0.26788625  0.01998653  0.05839207     0.14600
C229        C  0.47565236  0.27856369  0.34813027     0.86400
C230        C  0.45610622  0.25364499  0.36700400    -0.53900
C231        C  0.47129786  0.23436874  0.38702997     0.09300
C232        C  0.50525394  0.24206620  0.38683724     0.20200
C233        C  0.49302117  0.29993652  0.37177504    -0.54600
C234        C  0.50866323  0.28126861  0.39194811     0.09400
C235        C  0.49996425  0.25601429  0.33237460    -0.54100
C236        C  0.51534519  0.23676339  0.35287059     0.09900
H237        H  0.43192402  0.25162515  0.36488206     0.14500
H238        H  0.51781771  0.22639135  0.40315965     0.00200
H239        H  0.49344231  0.32774831  0.37195223     0.14800
H240        H  0.50586386  0.25652091  0.30787071     0.14600
C241        C  0.70640628  0.02084497  0.36009160     0.86400
C242        C  0.72879248  0.99960449  0.34086285    -0.53900
C243        C  0.73913957  0.47707371  0.35884054     0.09300
C244        C  0.73636095  0.48159910  0.39406494     0.20200
C245        C  0.69234554  0.99532398  0.38349465    -0.54600
C246        C  0.70344577  0.47271353  0.40196527     0.09400
C247        C  0.72540619  0.04522052  0.38005469    -0.54100
C248        C  0.74608616  0.02978048  0.39734615     0.09900
H249        H  0.72844206  0.99768700  0.31574311     0.14500
H250        H  0.75257981  0.46614396  0.40674282     0.00200
H251        H  0.65907911  0.48817503  0.38879059     0.14800
H252        H  0.72193932  0.07269981  0.38113640     0.14600
O253        O  0.64412757  0.08325251  0.22653755    -0.81900
C254        C  0.71391569  0.18754331  0.28536727     0.97400
O255        O  0.72400378  0.16520329  0.26659528    -0.71100
O256        O  0.70508491  0.10532498  0.28347631    -0.74600
Al257      Al  0.70404801  0.12748942  0.24588287     1.49000
C258        C  0.68662548  0.08545097  0.29677729     0.92700
O259        O  0.62299474  0.13743059  0.29870158    -0.80900
O260        O  0.63355105  0.18159737  0.21921867    -0.74400
Al261      Al  0.63657262  0.11274867  0.26203085     1.90100
O262        O  0.62990673  0.18902516  0.28064384    -0.73500
O263        O  0.69152140  0.19819915  0.21903259    -0.73300
O264        O  0.68738398  0.19741846  0.28370051    -0.79000
O265        O  0.70747417  0.14735803  0.20667403    -0.77200
O266        O  0.66707901  0.14231126  0.25298743    -1.13300
O267        O  0.69302293  0.08686016  0.22421215    -0.72500
C268        C  0.66889734  0.07324671  0.21541420     0.98200
C269        C  0.61735558  0.16905147  0.29968381     0.94600
Al270      Al  0.66118240  0.18749159  0.25086338     1.55600
O271        O  0.65944581  0.08378223  0.28899814    -0.77200
C272        C  0.70532908  0.17844385  0.20049929     0.98700
C273        C  0.61005261  0.16303045  0.22084962     0.93600
O274        O  0.60837673  0.13643134  0.23740309    -0.82500
C275        C  0.70539305  0.02322180  0.14808288     0.86400
C276        C  0.72685275  0.04022160  0.12422458    -0.53900
C277        C  0.74565600  0.01829609  0.10874297     0.09300
C278        C  0.74129811  0.48356463  0.11745470     0.20200
C279        C  0.68847746  0.99536837  0.12911464    -0.54600
C280        C  0.70788648  0.47588345  0.11171187     0.09400
C281        C  0.72592843  0.00357258  0.16917984    -0.54100
C282        C  0.74464566  0.48278823  0.15261434     0.09900
H283        H  0.72627386  0.06742560  0.11977637     0.14500
H284        H  0.75679010  0.46616104  0.10464702     0.00200
H285        H  0.66452708  0.49572204  0.12640548     0.14800
H286        H  0.72643742  0.00805300  0.19403104     0.14600
O287        O  0.64683119  0.42199202  0.03076046    -0.81900
C288        C  0.69445574  0.31259684  0.45529906     0.97400
O289        O  0.70918516  0.33273818  0.47282251    -0.71100
O290        O  0.68965521  0.39565255  0.47018310    -0.74600
Al291      Al  0.69572663  0.37147747  0.00412985     1.49000
C292        C  0.66934835  0.41736238  0.46751316     0.92700
O293        O  0.60821562  0.36622179  0.47464948    -0.80900
O294        O  0.61111285  0.31725024  0.02736256    -0.74400
Al295      Al  0.62786925  0.38833445  0.00401985     1.90100
O296        O  0.61301899  0.31165961  0.48356091    -0.73500
O297        O  0.66640263  0.30892967  0.04515305    -0.73300
O298        O  0.66745325  0.30508964  0.46164142    -0.79000
O299        O  0.70810158  0.33722346  0.03294721    -0.77200
O300        O  0.65735501  0.35802088  0.00479955    -1.13300
O301        O  0.69082891  0.40074801  0.03951830    -0.72500
C302        C  0.67062923  0.42203178  0.04603626     0.98200
C303        C  0.59968238  0.33544600  0.47089901     0.94600
Al304      Al  0.64840964  0.31336348  0.00624544     1.55600
O305        O  0.64664059  0.41713545  0.48557142    -0.77200
C306        C  0.69338844  0.31664957  0.05040299     0.98700
C307        C  0.59843860  0.34091053  0.04223776     0.93600
O308        O  0.60809396  0.37132110  0.04049729    -0.82500
C309        C  0.51412263  0.22104821  0.15362517     0.86400
C310        C  0.49135330  0.24466300  0.17023509    -0.53900
C311        C  0.47515143  0.26381594  0.15047064     0.09300
C312        C  0.48294580  0.25743690  0.11620949     0.20200
C313        C  0.49513384  0.19934555  0.13111493    -0.54600
C314        C  0.47879575  0.21850695  0.11178004     0.09400
C315        C  0.53292037  0.24504962  0.13289341    -0.54100
C316        C  0.51675092  0.26462187  0.11401653     0.09900
H317        H  0.48849928  0.24616845  0.19525499     0.14500
H318        H  0.46997336  0.27295127  0.10008963     0.00200
H319        H  0.49252462  0.17172449  0.13167674     0.14800
H320        H  0.55717245  0.24745966  0.13400122     0.14600
C321        C  0.55184544  0.31466375  0.11056661    -0.13500
C322        C  0.53125958  0.29230264  0.09608243     0.08700
C323        C  0.52868379  0.29271587  0.06394713    -0.13500
C324        C  0.54910688  0.31210504  0.04620423    -0.13500
C325        C  0.57174157  0.33161908  0.06058678     0.08700
C326        C  0.57201115  0.33441605  0.09282764    -0.13500
H327        H  0.55382483  0.31476173  0.13551187     0.12700
H328        H  0.51294342  0.27561693  0.05251558     0.12700
H329        H  0.54888042  0.30964470  0.02118538     0.12700
H330        H  0.58956187  0.34902763  0.10415762     0.12700
C331        C  0.67488888  0.44778427  0.07155376    -0.16600
C332        C  0.69957159  0.44832259  0.08893921    -0.31700
H333        H  0.65811398  0.46726796  0.07519924     0.12500
H334        H  0.71647308  0.42920406  0.08417674     0.13000
C335        C  0.56457488  0.15377097  0.18870444    -0.13500
C336        C  0.58326955  0.17536886  0.20606615     0.08700
C337        C  0.57619790  0.20992978  0.21006911    -0.13500
C338        C  0.55192869  0.22335936  0.19526952    -0.13500
C339        C  0.53459188  0.20280453  0.17530801     0.08700
C340        C  0.54053900  0.16743863  0.17304666    -0.13500
H341        H  0.56945910  0.12681716  0.18601886     0.12700
H342        H  0.58987463  0.22677131  0.22428949     0.12700
H343        H  0.54791293  0.25055441  0.19770515     0.12700
H344        H  0.52796056  0.15039462  0.15819936     0.12700
C345        C  0.67092371  0.04511409  0.19190851    -0.16600
C346        C  0.68759254  0.05050403  0.16587158    -0.31700
H347        H  0.66448207  0.01927122  0.19867832     0.12500
H348        H  0.69300703  0.07707949  0.16037405     0.13000
C349        C  0.68601236  0.04060910  0.33926409    -0.16600
C350        C  0.69956013  0.06373153  0.32036798    -0.31700
H351        H  0.66193696  0.03619713  0.33943730     0.12500
H352        H  0.72378246  0.06683659  0.32174797     0.13000
C353        C  0.69657471  0.44509309  0.42432423    -0.16600
C354        C  0.67227197  0.44372411  0.44321051    -0.31700
H355        H  0.71412293  0.42659249  0.42715345     0.12500
H356        H  0.65502241  0.46278895  0.44163792     0.13000
C357        C  0.54278595  0.18192955  0.34170191    -0.13500
C358        C  0.54271689  0.21789188  0.34388599     0.08700
C359        C  0.56904543  0.23645959  0.33683855    -0.13500
C360        C  0.59446988  0.21970447  0.32561430    -0.13500
C361        C  0.59406400  0.18394911  0.32070742     0.08700
C362        C  0.56832354  0.16499288  0.33001448    -0.13500
H363        H  0.52267690  0.16718349  0.34754587     0.12700
H364        H  0.56958145  0.26414249  0.33903002     0.12700
H365        H  0.61396498  0.23508479  0.31886972     0.12700
H366        H  0.56720039  0.13752964  0.32623613     0.12700
C367        C  0.53524462  0.28225496  0.44192553    -0.13500
C368        C  0.52969933  0.29776060  0.41374007     0.08700
C369        C  0.54536782  0.32836083  0.40586801    -0.13500
C370        C  0.56707458  0.34231328  0.42533764    -0.13500
C371        C  0.57363338  0.32555645  0.45262761     0.08700
C372        C  0.55700125  0.29601501  0.46118004    -0.13500
H373        H  0.52314529  0.25921157  0.44890310     0.12700
H374        H  0.54195373  0.34071661  0.38400361     0.12700
H375        H  0.57982101  0.36490760  0.41826948     0.12700
H376        H  0.56147225  0.28293319  0.48249981     0.12700
C377        C  0.41295820  0.16929008  0.41234969    -0.13500
C378        C  0.41003539  0.17776562  0.44384604     0.08700
C379        C  0.43133273  0.19998841  0.45737454    -0.13500
C380        C  0.45385812  0.21567217  0.43919295    -0.13500
C381        C  0.45495001  0.20981560  0.40719219     0.08700
C382        C  0.43512791  0.18556057  0.39403561    -0.13500
H383        H  0.39675124  0.15228909  0.40152225     0.12700
H384        H  0.42955805  0.20657531  0.48179449     0.12700
H385        H  0.46865043  0.23459997  0.44964195     0.12700
H386        H  0.43555827  0.18101868  0.36923474     0.12700
C387        C  0.40098278  0.19598670  0.08641050    -0.13500
C388        C  0.40656064  0.17944026  0.05791624     0.08700
C389        C  0.43633985  0.17387726  0.04794090    -0.13500
C390        C  0.46016525  0.18608084  0.06568070    -0.13500
C391        C  0.45434342  0.20352994  0.09363308     0.08700
C392        C  0.42474290  0.20737761  0.10436053    -0.13500
H393        H  0.37825218  0.20015892  0.09475275     0.12700
H394        H  0.44115851  0.16131689  0.02591525     0.12700
H395        H  0.48299885  0.18263999  0.05733966     0.12700
H396        H  0.42002791  0.21919088  0.12668793     0.12700
C397        C  0.30853083  0.04309196  0.40903390    -0.16600
C398        C  0.29537961  0.06764124  0.42612177    -0.31700
H399        H  0.33257573  0.03952644  0.40912754     0.12500
H400        H  0.27130862  0.07056799  0.42412886     0.13000
C401        C  0.32178473  0.05482988  0.06193360    -0.16600
C402        C  0.30667963  0.06190019  0.08858428    -0.31700
H403        H  0.32576623  0.02841705  0.05509316     0.12500
H404        H  0.30269509  0.08868412  0.09428197     0.13000
C405        C  0.45760551  0.30969783  0.18690293    -0.13500
C406        C  0.45254045  0.28879729  0.16089039     0.08700
C407        C  0.42552991  0.29151999  0.14514991    -0.13500
C408        C  0.40255880  0.31172206  0.15737315    -0.13500
C409        C  0.40712283  0.33110444  0.18434434     0.08700
C410        C  0.43527069  0.33127354  0.19813575    -0.13500
H411        H  0.47859849  0.30888011  0.19885469     0.12700
H412        H  0.42150968  0.27691473  0.12423260     0.12700
H413        H  0.38102753  0.31143844  0.14637744     0.12700
H414        H  0.43924330  0.34613231  0.21904431     0.12700
C415        C  0.41694001  0.34332967  0.32680539    -0.13500
C416        C  0.41132132  0.33388719  0.29626166     0.08700
C417        C  0.42876295  0.30854437  0.28151513    -0.13500
C418        C  0.45111577  0.29217223  0.29728027    -0.13500
C419        C  0.45618651  0.30047301  0.32839646     0.08700
C420        C  0.43865585  0.32619939  0.34294496    -0.13500
H421        H  0.40329736  0.36224297  0.33871733     0.12700
H422        H  0.42432009  0.30046533  0.25797243     0.12700
H423        H  0.46294157  0.27169899  0.28553549     0.12700
H424        H  0.44087984  0.33216322  0.36732762     0.12700
C425        C  0.29147465  0.44887865  0.33531440    -0.16600
C426        C  0.31618885  0.45251058  0.31713078    -0.31700
H427        H  0.27485416  0.42911033  0.32998529     0.12500
H428        H  0.33255443  0.47282405  0.32150695     0.13000
C429        C  0.32133177  0.46020973  0.17806441    -0.16600
C430        C  0.29369234  0.46269377  0.16653289    -0.31700
H431        H  0.34008296  0.47533261  0.16886646     0.12500
H432        H  0.27597392  0.44602605  0.17584317     0.13000
C433        C  0.25840900  0.28366703  0.18224322    -0.16600
C434        C  0.26597486  0.31680740  0.17883983    -0.31700
H435        H  0.26587925  0.26991120  0.20227713     0.12500
H436        H  0.25657595  0.33169886  0.16051113     0.13000
C437        C  0.26326105  0.22392798  0.08911136    -0.16600
C438        C  0.27106522  0.19161171  0.08266916    -0.31700
H439        H  0.27161081  0.24466162  0.07454745     0.12500
H440        H  0.26347800  0.17099023  0.09770560     0.13000
C441        C  0.27991284  0.22084530  0.42837036    -0.16600
C442        C  0.25764152  0.20791448  0.41081999    -0.31700
H443        H  0.29013405  0.24559686  0.42317285     0.12500
H444        H  0.24924942  0.18209610  0.41540759     0.13000
C445        C  0.27409430  0.29382798  0.33216761    -0.16600
C446        C  0.26652803  0.31426105  0.30883795    -0.31700
H447        H  0.29731877  0.29059432  0.33811929     0.12500
H448        H  0.24284633  0.31832832  0.30522080     0.13000
C449        C  0.22685309  0.06652970  0.31984596    -0.16600
C450        C  0.22736226  0.03349100  0.32872397    -0.31700
H451        H  0.24075668  0.08581737  0.33100020     0.12500
H452        H  0.21296931  0.01474313  0.31731969     0.13000
C453        C  0.22655546  0.06570620  0.18501884    -0.16600
C454        C  0.22311638  0.03774843  0.16716338    -0.31700
H455        H  0.24626755  0.08211989  0.18183504     0.12500
H456        H  0.20448571  0.02003023  0.17161481     0.13000
C457        C  0.07271084  0.08506877  0.17103727    -0.13500
C458        C  0.08321685  0.06624597  0.19570846     0.08700
C459        C  0.06931796  0.03462177  0.20296941    -0.13500
C460        C  0.04513076  0.02213672  0.18603025    -0.13500
C461        C  0.03462942  0.04071632  0.16109847     0.08700
C462        C  0.04894074  0.07224409  0.15363927    -0.13500
H463        H  0.08313535  0.10944380  0.16496720     0.12700
H464        H  0.07669166  0.01988825  0.22233484     0.12700
H465        H  0.03229094  0.49406750  0.19728958     0.12700
H466        H  0.04230623  0.08687878  0.13396418     0.12700
C467        C  0.16295247  0.20061780  0.19085133    -0.16600
C468        C  0.17867384  0.19580812  0.16424651    -0.31700
H469        H  0.15716159  0.22632286  0.19845840     0.12500
H470        H  0.18317837  0.16952785  0.15715200     0.13000
C471        C  0.16603968  0.19191937  0.32661386    -0.16600
C472        C  0.18504268  0.21865774  0.32241307    -0.31700
H473        H  0.15963663  0.18313963  0.34962484     0.12500
H474        H  0.18922304  0.22636525  0.29852323     0.13000
C475        C  0.23510663  0.44968705  0.05998276    -0.16600
C476        C  0.22630712  0.46556756  0.08613306    -0.31700
H477        H  0.25852737  0.45073343  0.05245832     0.12500
H478        H  0.20359060  0.46220040  0.09535522     0.13000
C479        C  0.22496573  0.45613976  0.41683824    -0.16600
C480        C  0.20776517  0.46549731  0.44136547    -0.31700
H481        H  0.22614046  0.42934922  0.40990049     0.12500
H482        H  0.20506203  0.49251583  0.44688651     0.13000
C483        C  0.06684888  0.41369065  0.08025749    -0.13500
C484        C  0.09206026  0.43251071  0.06940691     0.08700
C485        C  0.09195426  0.46854318  0.07204381    -0.13500
C486        C  0.06653797  0.48544842  0.08287493    -0.13500
C487        C  0.04090646  0.46676871  0.09201507     0.08700
C488        C  0.04147769  0.43079999  0.09183498    -0.13500
H489        H  0.06613896  0.38600978  0.07826819     0.12700
H490        H  0.11105385  0.48390540  0.06414281     0.12700
H491        H  0.06672729  0.51320317  0.08378845     0.12700
H492        H  0.02191463  0.41607317  0.09949329     0.12700
C493        C  0.17791736  0.30181898  0.42907783    -0.16600
C494        C  0.20351874  0.30275717  0.41180118    -0.31700
H495        H  0.16138150  0.28145339  0.42558548     0.12500
H496        H  0.22088632  0.32160560  0.41724608     0.13000
C497        C  0.17477370  0.30357459  0.07867978    -0.16600
C498        C  0.19784569  0.30409473  0.09792446    -0.31700
H499        H  0.15757916  0.28360562  0.08064058     0.12500
H500        H  0.21526298  0.32370682  0.09501286     0.13000
C501        C  0.07469836  0.02957949  0.36384339    -0.13500
C502        C  0.04622113  0.02020697  0.35263396     0.08700
C503        C  0.03842104  0.03066669  0.32304024    -0.13500
C504        C  0.05908641  0.04903846  0.30467324    -0.13500
C505        C  0.08791014  0.05640853  0.31544945     0.08700
C506        C  0.09559661  0.04682128  0.34510440    -0.13500
H507        H  0.08113121  0.02343792  0.38705792     0.12700
H508        H  0.01688358  0.02374444  0.31363471     0.12700
H509        H  0.05304254  0.05627933  0.28155317     0.12700
H510        H  0.11766296  0.05285533  0.35377234     0.12700
C511        C  0.03317248  0.44717497  0.46146488    -0.13500
C512        C  0.02357771  0.43102589  0.43398666     0.08700
C513        C  0.03878841  0.40157619  0.42342765    -0.13500
C514        C  0.06415905  0.39042921  0.43846834    -0.13500
C515        C  0.07509314  0.40893510  0.46395098     0.08700
C516        C  0.05852596  0.43627803  0.47617637    -0.13500
H517        H  0.02312832  0.47049871  0.47007984     0.12700
H518        H  0.03290129  0.38910757  0.40184554     0.12700
H519        H  0.07632897  0.36884795  0.42893338     0.12700
H520        H  0.06597956  0.45042210  0.49640639     0.12700
C521        C  0.93834048  0.07487667  0.03302561    -0.13500
C522        C  0.91350783  0.08814626  0.04937581     0.08700
C523        C  0.91150919  0.08516378  0.08151984    -0.13500
C524        C  0.93327070  0.06757000  0.09701807    -0.13500
C525        C  0.95667919  0.05102653  0.08055219     0.08700
C526        C  0.95971359  0.05617567  0.04842638    -0.13500
H527        H  0.93986789  0.07653269  0.00800535     0.12700
H528        H  0.89228454  0.09488310  0.09440687     0.12700
H529        H  0.93066801  0.06477358  0.12186838     0.12700
H530        H  0.97762156  0.04489989  0.03479373     0.12700
C531        C  0.90469959  0.03630728  0.42703683    -0.13500
C532        C  0.91036318  0.07028314  0.43652390     0.08700
C533        C  0.93847502  0.08565797  0.43013048    -0.13500
C534        C  0.96161431  0.06595525  0.41725944    -0.13500
C535        C  0.95641565  0.03114118  0.41063824     0.08700
C536        C  0.92764264  0.01681712  0.41425847    -0.13500
H537        H  0.88311610  0.02404201  0.43183780     0.12700
H538        H  0.94327464  0.11170599  0.43768477     0.12700
H539        H  0.98389838  0.07713082  0.41446308     0.12700
H540        H  0.92347260  0.98992224  0.40914688     0.12700
C541        C  0.76281599  0.05066227  0.42054237    -0.16600
C542        C  0.78415942  0.03872261  0.43851724    -0.31700
H543        H  0.75678103  0.07740624  0.42323133     0.12500
H544        H  0.79168322  0.01262462  0.43556206     0.13000
C545        C  0.77312980  0.06168435  0.07638614    -0.16600
C546        C  0.76719249  0.02867544  0.08335690    -0.31700
H547        H  0.76331154  0.08211686  0.09016271     0.12500
H548        H  0.77725147  0.00855942  0.06920955     0.13000
C549        C  0.93071122  0.43430365  0.20278803    -0.13500
C550        C  0.90869594  0.41455689  0.18760582     0.08700
C551        C  0.91139994  0.40907545  0.15560624    -0.13500
C552        C  0.93397365  0.42650240  0.13861262    -0.13500
C553        C  0.95422908  0.44893145  0.15361346     0.08700
C554        C  0.95352562  0.45111409  0.18592981    -0.13500
H555        H  0.92900889  0.43859956  0.22761221     0.12700
H556        H  0.89464372  0.39397019  0.14355810     0.12700
H557        H  0.93417869  0.42468200  0.11356795     0.12700
H558        H  0.96100220  0.99294824  0.19495999     0.12700
C559        C  0.90745827  0.45395863  0.31643282    -0.13500
C560        C  0.90572347  0.41988365  0.30566456     0.08700
C561        C  0.92837509  0.39734132  0.31347408    -0.13500
C562        C  0.95200510  0.40863624  0.33205441    -0.13500
C563        C  0.95360559  0.44279045  0.34295592     0.08700
C564        C  0.93109836  0.46527343  0.33460752    -0.13500
H565        H  0.89059832  0.47218586  0.31059716     0.12700
H566        H  0.92783431  0.37102066  0.30525000     0.12700
H567        H  0.96908377  0.39063820  0.33770004     0.12700
H568        H  0.93347303  0.99753852  0.34780675     0.12700
C569        C  0.77210903  0.45998260  0.31549326    -0.16600
C570        C  0.75904216  0.45201801  0.34281291    -0.31700
H571        H  0.77021193  0.48596985  0.30710794     0.12500
H572        H  0.76235817  0.42718925  0.35307065     0.13000
C573        C  0.76059094  0.44702465  0.19477263    -0.16600
C574        C  0.76748609  0.46249584  0.16801228    -0.31700
H575        H  0.73758601  0.44751448  0.20364857     0.12500
H576        H  0.78961382  0.46007735  0.15728034     0.13000
C577        C  0.72401234  0.22079088  0.33372104    -0.16600
C578        C  0.73351872  0.20049996  0.31004926    -0.31700
H579        H  0.70203428  0.23193928  0.33372817     0.12500
H580        H  0.75613724  0.19101627  0.30988637     0.13000
C581        C  0.73850812  0.28930964  0.42818225    -0.16600
C582        C  0.70912431  0.29553275  0.42832062    -0.31700
H583        H  0.75168704  0.29825100  0.44755044     0.12500
H584        H  0.69522454  0.28372920  0.41077106     0.13000
C585        C  0.79256776  0.29728408  0.33765970    -0.16600
C586        C  0.81754067  0.29894987  0.31953854    -0.31700
H587        H  0.77512700  0.31559901  0.33408237     0.12500
H588        H  0.83552750  0.28121016  0.32238688     0.13000
C589        C  0.80477910  0.19088863  0.40608871    -0.16600
C590        C  0.82465646  0.19693270  0.42839576    -0.31700
H591        H  0.79715187  0.16459365  0.40203852     0.12500
H592        H  0.83331480  0.22279836  0.43235076     0.13000
C593        C  0.73736600  0.30378250  0.08140707    -0.16600
C594        C  0.70820773  0.29894820  0.07568809    -0.31700
H595        H  0.75031763  0.32314943  0.06879508     0.12500
H596        H  0.69588241  0.27817819  0.08711284     0.13000
C597        C  0.72434087  0.22322522  0.16296798    -0.16600
C598        C  0.72052233  0.19032807  0.17171289    -0.31700
H599        H  0.71454063  0.24346598  0.17714618     0.12500
H600        H  0.73085628  0.16999956  0.15830953     0.13000
C601        C  0.80565968  0.28877911  0.16232855    -0.16600
C602        C  0.79016947  0.30390458  0.18584696    -0.31700
H603        H  0.82994880  0.29096112  0.16149182     0.12500
H604        H  0.76602807  0.30094811  0.18711206     0.13000
C605        C  0.79721551  0.19781070  0.07513810    -0.16600
C606        C  0.81750049  0.20318555  0.05208342    -0.31700
H607        H  0.78722906  0.17221485  0.07681586     0.12500
H608        H  0.82928396  0.22765380  0.04982990     0.13000
C609        C  0.79284385  0.22599201  0.60404718     0.86400
C610        C  0.77397656  0.24745221  0.58275061    -0.53900
C611        C  0.75551970  0.26981242  0.59794202     0.09300
C612        C  0.75705108  0.26820828  0.63327081     0.20200
C613        C  0.80940590  0.25249099  0.62496100    -0.54600
C614        C  0.79023895  0.27466714  0.64032208     0.09400
C615        C  0.76987988  0.20853830  0.62603597    -0.54100
C616        C  0.75099727  0.23045115  0.64148250     0.03900
H617        H  0.77558602  0.24557719  0.55766429     0.14500
H618        H  0.74156405  0.28607970  0.64551056     0.00200
H619        H  0.83353110  0.25342510  0.62733402     0.14800
H620        H  0.76978381  0.18114274  0.62974646     0.14600
C621        C  0.78847981  0.22988827  0.89037431     0.86400
C622        C  0.76663644  0.21201386  0.86807604    -0.53900
C623        C  0.74796292  0.23381535  0.85379559     0.09300
C624        C  0.75274999  0.27161516  0.86350492     0.20200
C625        C  0.80511698  0.25669630  0.87023604    -0.54600
C626        C  0.78622763  0.27824460  0.85561155     0.09400
C627        C  0.76884480  0.25078390  0.91292038    -0.54100
C628        C  0.75010814  0.27285356  0.89922517     0.09900
H629        H  0.76650527  0.18458894  0.86351328     0.14500
H630        H  0.73749515  0.28930484  0.85197608     0.00200
H631        H  0.82925518  0.25717910  0.86679816     0.14800
H632        H  0.77071932  0.24898939  0.93785831     0.14600
O633        O  0.85265890  0.34086217  0.78446602    -0.81900
C634        C  0.78693703  0.43373301  0.71317112     0.97400
O635        O  0.77737981  0.40764492  0.72739134    -0.71100
O636        O  0.80398682  0.35023511  0.71159629    -0.74600
Al637      Al  0.79582580  0.37270945  0.75012125     1.49000
C638        C  0.82565990  0.33100605  0.70478658     0.92700
O639        O  0.88261114  0.38958614  0.71390884    -0.80900
O640        O  0.85912018  0.43662156  0.79018820    -0.74400
Al641      Al  0.86507818  0.36635993  0.74896524     1.90100
O642        O  0.87071437  0.44155880  0.72883064    -0.73500
O643        O  0.80185187  0.44429806  0.78197765    -0.73300
O644        O  0.81291979  0.44572810  0.71782095    -0.79000
O645        O  0.78299278  0.39260162  0.78855533    -0.77200
O646        O  0.83229324  0.39243257  0.75101180    -1.13300
O647        O  0.80542453  0.33366072  0.77329414    -0.72500
C648        C  0.82725219  0.32755055  0.79013984     0.98200
C649        C  0.88720629  0.42164181  0.71315396     0.94600
Al650      Al  0.83576541  0.43799378  0.75423140     1.55600
O651        O  0.84915141  0.33245788  0.72048710    -0.77200
C652        C  0.78472982  0.42368668  0.79662246     0.98700
C653        C  0.88288005  0.42018365  0.79308496     0.93600
O654        O  0.88809269  0.39412710  0.77640895    -0.82500
O655        O  0.83396150  0.16418567  0.95751105    -0.81900
C656        C  0.79104098  0.07908010  0.54523338     0.97400
O657        O  0.78667304  0.10769178  0.53336252    -0.71100
O658        O  0.80939886  0.16809320  0.52031159    -0.74600
Al659      Al  0.79140617  0.11763813  0.99785997     1.49000
C660        C  0.83153196  0.17869795  0.53608833     0.92700
O661        O  0.89679726  0.11674892  0.52031722    -0.80900
O662        O  0.87287282  0.06313981  0.97562839    -0.74400
Al663      Al  0.86981086  0.14106870  0.49562448     1.90100
O664        O  0.86810275  0.07770426  0.54221538    -0.73500
O665        O  0.81735750  0.04471442  0.97190838    -0.73300
O666        O  0.81184553  0.06036169  0.53523921    -0.79000
O667        O  0.77701051  0.07560588  0.97872962    -0.77200
O668        O  0.82957233  0.10651550  0.99561288    -1.13300
O669        O  0.79165861  0.13505685  0.95792914    -0.72500
C670        C  0.80821456  0.15827887  0.94683682     0.98200
C671        C  0.89289116  0.09335098  0.53974214     0.94600
Al672      Al  0.83967913  0.06377294  0.00408157     1.55600
O673        O  0.85745714  0.16673735  0.53150731    -0.77200
C674        C  0.79069560  0.05084608  0.96579223     0.98700
C675        C  0.88144056  0.08155346  0.95310423     0.93600
O676        O  0.87199511  0.11169049  0.95043044    -0.82500
C677        C  0.01466521  0.47380705  0.91018944     0.86400
C678        C  0.99688134  0.50415620  0.92350866    -0.53900
C679        C  0.98546558  0.02043074  0.90031349     0.09300
C680        C  0.99323613  0.00874068  0.86693436     0.20200
C681        C  0.99164103  0.45336828  0.89106013    -0.54600
C682        C  0.97828407  0.47243140  0.86906233     0.09400
C683        C  0.03640358  0.48924086  0.88650399    -0.54100
C684        C  0.02779189  0.00665979  0.86500730     0.09900
H685        H  0.99207245  0.00306274  0.94680996     0.14500
H686        H  0.98384820  0.02520998  0.84896538     0.00200
H687        H  0.98508672  0.42698008  0.89560134     0.14800
H688        H  0.06052081  0.48603399  0.88738752     0.14600
O689        O  0.14293051  0.33635272  0.97368947    -0.81900
C690        C  0.21327884  0.42169100  0.54241884     0.97400
O691        O  0.21910317  0.39420498  0.52841019    -0.71100
O692        O  0.20120759  0.33213494  0.51608394    -0.74600
Al693      Al  0.20160436  0.37414296  0.49336321     1.49000
C694        C  0.18409572  0.32199192  0.53812975     0.92700
O695        O  0.10980658  0.37279123  0.53774157    -0.80900
O696        O  0.13589932  0.42963612  0.97015157    -0.74400
Al697      Al  0.13626906  0.35111995  0.50736848     1.90100
O698        O  0.13780177  0.41495687  0.55384238    -0.73500
O699        O  0.19413686  0.43747728  0.97244340    -0.73300
O700        O  0.19002990  0.43812384  0.53686897    -0.79000
O701        O  0.21345338  0.38642027  0.96697408    -0.77200
O702        O  0.16430555  0.38461552  0.50485798    -1.13300
O703        O  0.18981675  0.32805868  0.98478200    -0.72500
C704        C  0.16807620  0.32367988  0.96704445     0.98200
C705        C  0.11355228  0.39832023  0.55549192     0.94600
Al706      Al  0.15459511  0.42730493  0.51476796     1.55600
O707        O  0.15687720  0.33049250  0.54002527    -0.77200
C708        C  0.21091279  0.41676767  0.95788177     0.98700
C709        C  0.11124508  0.41344559  0.97111365     0.93600
O710        O  0.10760234  0.38720652  0.98721187    -0.82500
O711        O  0.15898515  0.15645390  0.80039589    -0.81900
C712        C  0.21268479  0.07470506  0.70597081     0.97400
O713        O  0.22421867  0.09815037  0.72189070    -0.71100
O714        O  0.19519005  0.15400219  0.71530073    -0.74600
Al715      Al  0.20823377  0.13030347  0.74985102     1.49000
C716        C  0.17486555  0.17598382  0.71633526     0.92700
O717        O  0.11992656  0.12062961  0.72770413    -0.80900
O718        O  0.14693271  0.06249093  0.79256578    -0.74400
Al719      Al  0.14086082  0.13794285  0.76321963     1.90100
O720        O  0.13176038  0.06627532  0.73259906    -0.73500
O721        O  0.20388576  0.05672006  0.77642033    -0.73300
O722        O  0.18786254  0.06130864  0.71408488    -0.79000
O723        O  0.22430168  0.10791424  0.78382697    -0.77200
O724        O  0.17223107  0.11086579  0.75567921    -1.13300
O725        O  0.20174979  0.16792948  0.77648989    -0.72500
C726        C  0.18525204  0.16935420  0.80038037     0.98200
C727        C  0.11531982  0.08898870  0.72186626     0.94600
Al728      Al  0.16809598  0.06549239  0.75397160     1.55600
O729        O  0.15535628  0.17588366  0.73806876    -0.77200
C730        C  0.22226729  0.07650135  0.79011449     0.98700
C731        C  0.12295419  0.07780875  0.79918724     0.93600
O732        O  0.11846356  0.10696766  0.78850288    -0.82500
C733        C  0.20705796  0.23372131  0.86286734     0.86400
C734        C  0.22903009  0.21725968  0.88494052    -0.53900
C735        C  0.24783934  0.24030570  0.89930881     0.09300
C736        C  0.24301895  0.27771660  0.88955787     0.20200
C737        C  0.19064758  0.26020495  0.88293565    -0.54600
C738        C  0.20945496  0.28285695  0.89763053     0.09400
C739        C  0.22670636  0.25472915  0.84017766    -0.54100
C740        C  0.24563376  0.27785426  0.85368915     0.09900
H741        H  0.22908333  0.18993541  0.88929769     0.14500
H742        H  0.25822466  0.29652166  0.90105603     0.00200
H743        H  0.16653345  0.25940337  0.88650624     0.14800
H744        H  0.22494696  0.25216060  0.81520658     0.14600
C745        C  0.20495889  0.22596488  0.64729813     0.86400
C746        C  0.22530236  0.24982139  0.66611126    -0.53900
C747        C  0.24033646  0.27368114  0.64873280     0.09300
C748        C  0.23361112  0.27188234  0.61416128     0.20200
C749        C  0.18402376  0.24953935  0.63021755    -0.54600
C750        C  0.19909642  0.27319372  0.61222820     0.09400
C751        C  0.22575336  0.21109722  0.62192346    -0.54100
C752        C  0.24066396  0.23520783  0.60446351     0.09900
H753        H  0.22900079  0.24675163  0.69068090     0.14500
H754        H  0.24620308  0.29153192  0.60044058     0.00200
H755        H  0.15981558  0.24625256  0.63054143     0.14800
H756        H  0.22879649  0.18376208  0.61866042     0.14600
C757        C  0.98556602  0.02717921  0.60554278     0.86400
C758        C  0.96716722  0.00300621  0.62628137    -0.53900
C759        C  0.97860167  0.48988426  0.64111139     0.09300
C760        C  0.01288648  0.49347947  0.63768086     0.20200
C761        C  0.00467925  0.04903318  0.62741076    -0.54600
C762        C  0.02176761  0.03073158  0.64674832     0.09400
C763        C  0.00814398  0.00332451  0.58864507    -0.54100
C764        C  0.01980731  0.48344321  0.60374874     0.09900
H765        H  0.93920743  0.50869661  0.62039865     0.14500
H766        H  0.02483471  0.47758327  0.65423721     0.00200
H767        H  0.00477820  0.07684026  0.62717542     0.14800
H768        H  0.00748422  0.49864418  0.55801237     0.14600
O769        O  0.35020789  0.41982621  0.71281740    -0.81900
C770        C  0.29331515  0.31458329  0.78483376     0.97400
O771        O  0.28161018  0.34235295  0.77706867    -0.71100
O772        O  0.30522673  0.40085567  0.78855626    -0.74600
Al773      Al  0.29522477  0.38011739  0.75138645     1.49000
C774        C  0.32556369  0.42222250  0.79420761     0.92700
O775        O  0.38122827  0.36841452  0.77835587    -0.80900
O776        O  0.35870364  0.32996230  0.69721679    -0.74400
Al777      Al  0.36397752  0.39321623  0.74576342     1.90100
O778        O  0.37374400  0.31741969  0.75718142    -0.73500
O779        O  0.30282175  0.31351979  0.71092418    -0.73300
O780        O  0.31702399  0.30439879  0.77147721    -0.79000
O781        O  0.27832056  0.36118695  0.71561150    -0.77200
O782        O  0.33199289  0.36435775  0.74407383    -1.13300
O783        O  0.30234394  0.42082802  0.72669022    -0.72500
C784        C  0.32415719  0.43087550  0.70930262     0.98200
C785        C  0.38813817  0.33720693  0.77512720     0.94600
Al786      Al  0.33747567  0.32018172  0.73501024     1.55600
O787        O  0.34817475  0.42472512  0.77639192    -0.77200
C788        C  0.28164254  0.33223600  0.70347286     0.98700
C789        C  0.38389669  0.34503215  0.69751471     0.93600
O790        O  0.38857988  0.36924874  0.71639550    -0.82500
O791        O  0.33237377  0.09358074  0.52963760    -0.81900
C792        C  0.28043220  0.19346112  0.96953390     0.97400
O793        O  0.26983542  0.17072649  0.98766985    -0.71100
O794        O  0.28928017  0.11312370  0.96718168    -0.74600
Al795      Al  0.28571118  0.13809026  0.48963624     1.49000
C796        C  0.30788582  0.09309877  0.95510418     0.92700
O797        O  0.36799924  0.14516238  0.95685430    -0.80900
O798        O  0.35251265  0.18281705  0.54040363    -0.74400
Al799      Al  0.35618125  0.12096515  0.99304045     1.90100
O800        O  0.36599334  0.19643921  0.97791253    -0.73500
O801        O  0.29882986  0.20458281  0.52664130    -0.73300
O802        O  0.30731908  0.20382626  0.97178994    -0.79000
O803        O  0.27261231  0.15646385  0.52703887    -0.77200
O804        O  0.32365601  0.14929779  0.49563439    -1.13300
O805        O  0.28695232  0.09537126  0.51151155    -0.72500
C806        C  0.30499404  0.08474802  0.53127641     0.98200
C807        C  0.37702544  0.17588900  0.95814540     0.94600
Al808      Al  0.33419614  0.19281199  0.50235920     1.55600
O809        O  0.33375724  0.09016940  0.96602279    -0.77200
C810        C  0.27760060  0.18599463  0.53745193     0.98700
C811        C  0.37444696  0.16308330  0.54220740     0.93600
O812        O  0.37747496  0.13837247  0.52327678    -0.82500
C813        C  0.29265320  0.02301141  0.89448318     0.86400
C814        C  0.26835925  0.00466501  0.91413361    -0.53900
C815        C  0.24635540  0.47726518  0.89917540     0.09300
C816        C  0.25241421  0.47866339  0.86398853     0.20200
C817        C  0.30475968  0.49121702  0.87680636    -0.54600
C818        C  0.28597944  0.47055232  0.85986276     0.09400
C819        C  0.27566136  0.04160027  0.86938808    -0.54100
C820        C  0.25684927  0.02075642  0.85270302     0.09900
H821        H  0.26585178  0.00817332  0.93907460     0.14500
H822        H  0.23729542  0.46162486  0.85040385     0.00200
H823        H  0.32894580  0.48890264  0.87643062     0.14800
H824        H  0.27828178  0.06894683  0.86593218     0.14600
C825        C  0.28867533  0.02463201  0.60192518     0.86400
C826        C  0.26371996  0.04404285  0.61966533    -0.53900
C827        C  0.24525656  0.02354426  0.63757164     0.09300
C828        C  0.25116447  0.48559224  0.63792194     0.20200
C829        C  0.30379177  0.50222204  0.62862374    -0.54600
C830        C  0.28426401  0.48230626  0.64650434     0.09400
C831        C  0.27256342  0.99620272  0.58386288    -0.54100
C832        C  0.25020447  0.47758266  0.60319370     0.09900
H833        H  0.26162497  0.07168365  0.61887853     0.14500
H834        H  0.23532000  0.46951376  0.65202502     0.00200
H835        H  0.32782813  0.50332839  0.63159577     0.14800
H836        H  0.27446256  0.99355053  0.55881071     0.14600
C837        C  0.48072194  0.27368315  0.84300579     0.86400
C838        C  0.45876010  0.25113995  0.86136409    -0.53900
C839        C  0.47149612  0.23104331  0.88237859     0.09300
C840        C  0.50576552  0.23520464  0.88364373     0.20200
C841        C  0.49861775  0.29390392  0.86735977    -0.54600
C842        C  0.51201191  0.27393356  0.88855918     0.09400
C843        C  0.50384891  0.24879436  0.82877504    -0.54100
C844        C  0.51693222  0.22860149  0.85021461     0.09900
H845        H  0.43463843  0.25167140  0.85850939     0.14500
H846        H  0.51595638  0.21856463  0.90098147     0.00200
H847        H  0.50316476  0.32121853  0.86589376     0.14800
H848        H  0.51077512  0.24883184  0.80449234     0.14600
C849        C  0.70455714  0.01522042  0.85825357     0.86400
C850        C  0.72813240  0.99521410  0.83969836    -0.53900
C851        C  0.74783906  0.48181726  0.85764477     0.09300
C852        C  0.74273005  0.48733489  0.89293224     0.20200
C853        C  0.68947424  0.98854471  0.87989451    -0.54600
C854        C  0.70989602  0.47542329  0.89910111     0.09400
C855        C  0.72196114  0.03892092  0.88024008    -0.54100
C856        C  0.74160492  0.02282072  0.89824963     0.09900
H857        H  0.72917607  0.99442280  0.81452023     0.14500
H858        H  0.75910331  0.47389731  0.90705129     0.00200
H859        H  0.66548275  0.48656542  0.88229916     0.14800
H860        H  0.71793079  0.06623893  0.88233378     0.14600
O861        O  0.64586731  0.07931855  0.72467265    -0.81900
C862        C  0.71533358  0.18417192  0.78386450     0.97400
O863        O  0.72527800  0.16141775  0.76548523    -0.71100
O864        O  0.70649445  0.10173957  0.78319080    -0.74600
Al865      Al  0.70549327  0.12334646  0.74520960     1.49000
C866        C  0.68808752  0.08108142  0.79559130     0.92700
O867        O  0.62518597  0.13114422  0.79785952    -0.80900
O868        O  0.63322334  0.17642502  0.71876084    -0.74400
Al869      Al  0.63820910  0.10748530  0.76076602     1.90100
O870        O  0.63117233  0.18329032  0.78051273    -0.73500
O871        O  0.69148631  0.19336334  0.71776445    -0.73300
O872        O  0.68860064  0.19353445  0.78237735    -0.79000
O873        O  0.70878674  0.14292325  0.70568942    -0.77200
O874        O  0.66831575  0.13766920  0.75201050    -1.13300
O875        O  0.69484725  0.08236555  0.72408093    -0.72500
C876        C  0.67087910  0.06930447  0.71428660     0.98200
C877        C  0.61938565  0.16266501  0.79950980     0.94600
Al878      Al  0.66175627  0.18265984  0.75000444     1.55600
O879        O  0.66136502  0.07842813  0.78672442    -0.77200
C880        C  0.70599256  0.17394428  0.69948414     0.98700
C881        C  0.61000036  0.15735016  0.72081153     0.93600
O882        O  0.60925405  0.13076913  0.73725074    -0.82500
C883        C  0.70967776  0.02502957  0.64643573     0.86400
C884        C  0.73087843  0.04427818  0.62377151    -0.53900
C885        C  0.75064549  0.02398727  0.60782611     0.09300
C886        C  0.74683590  0.48476499  0.61351014     0.20200
C887        C  0.69441601  0.99707760  0.62634740    -0.54600
C888        C  0.71358074  0.47518005  0.60756793     0.09400
C889        C  0.73059834  0.00580644  0.66739267    -0.54100
C890        C  0.74973242  0.48473960  0.64905159     0.09900
H891        H  0.73016810  0.07179820  0.62104087     0.14500
H892        H  0.76309227  0.46796065  0.60110664     0.00200
H893        H  0.66948327  0.49375265  0.62133433     0.14800
H894        H  0.73032657  0.00913967  0.69240597     0.14600
O895        O  0.64477090  0.40144045  0.54803788    -0.81900
C896        C  0.70198711  0.31156394  0.96674022     0.97400
O897        O  0.70584347  0.34365989  0.96803480    -0.71100
O898        O  0.69113646  0.40820601  0.97582524    -0.74600
Al899      Al  0.69647794  0.36649061  0.50371699     1.49000
C900        C  0.66944853  0.41858463  0.96050529     0.92700
O901        O  0.60279502  0.36014168  0.97752361    -0.80900
O902        O  0.63157849  0.30656161  0.54167898    -0.74400
Al903      Al  0.62857932  0.38188594  0.51100742     1.90100
O904        O  0.62931803  0.31405682  0.96786086    -0.73500
O905        O  0.68556185  0.29184182  0.52013949    -0.73300
O906        O  0.68336679  0.29718500  0.98487376    -0.79000
O907        O  0.70765673  0.33849067  0.53747321    -0.77200
O908        O  0.65838118  0.35225417  0.50567486    -1.13300
O909        O  0.69220573  0.40312544  0.53362837    -0.72500
C910        C  0.67125851  0.41231617  0.55196989     0.98200
C911        C  0.60657823  0.33185911  0.96317825     0.94600
Al912      Al  0.65016160  0.30769382  0.50209232     1.55600
O913        O  0.64298217  0.40948673  0.96748292    -0.77200
C914        C  0.70442639  0.30631893  0.53724545     0.98700
C915        C  0.60771309  0.32248099  0.54772306     0.93600
O916        O  0.60376664  0.35193767  0.53671287    -0.82500
C917        C  0.50993932  0.21071750  0.65753486     0.86400
C918        C  0.49111533  0.24012459  0.67140227    -0.53900
C919        C  0.47629613  0.25861249  0.64992906     0.09300
C920        C  0.48163998  0.24558365  0.61653445     0.20200
C921        C  0.48732795  0.18883658  0.63908807    -0.54600
C922        C  0.47226193  0.20727819  0.61791680     0.09400
C923        C  0.53015915  0.22745879  0.63303877    -0.54100
C924        C  0.51591683  0.24593171  0.61186482     0.09900
H925        H  0.48903414  0.24488418  0.69616571     0.14500
H926        H  0.47015316  0.26017280  0.59862144     0.00200
H927        H  0.48217176  0.16203094  0.64337528     0.14800
H928        H  0.55446647  0.22598007  0.63323105     0.14600
C929        C  0.53401999  0.30207976  0.59041672    -0.13500
C930        C  0.53419278  0.26611327  0.58952293     0.08700
C931        C  0.55763654  0.24946389  0.57372728    -0.13500
C932        C  0.58170039  0.26808665  0.56120733    -0.13500
C933        C  0.58261227  0.30398257  0.56336961     0.08700
C934        C  0.55800593  0.32099650  0.57700258    -0.13500
H935        H  0.51640646  0.31536036  0.60306691     0.12700
H936        H  0.55828515  0.22172691  0.57297834     0.12700
H937        H  0.59968897  0.25421047  0.54976418     0.12700
H938        H  0.55779992  0.34871904  0.57812503     0.12700
C939        C  0.67754100  0.43697186  0.57779162    -0.16600
C940        C  0.70563067  0.44806440  0.58411957    -0.31700
H941        H  0.65858545  0.44658815  0.59122637     0.12500
H942        H  0.72423265  0.43737821  0.57076595     0.13000
C943        C  0.56228857  0.14601351  0.69229605    -0.13500
C944        C  0.58228457  0.16876349  0.70695064     0.08700
C945        C  0.57490809  0.20325668  0.71036623    -0.13500
C946        C  0.54897174  0.21541961  0.69772070    -0.13500
C947        C  0.53005308  0.19366200  0.68035899     0.08700
C948        C  0.53658877  0.15845871  0.67851472    -0.13500
H949        H  0.56734792  0.11905600  0.69014584     0.12700
H950        H  0.58953659  0.22104183  0.72252240     0.12700
H951        H  0.54511800  0.24270317  0.69916680     0.12700
H952        H  0.52317843  0.14084511  0.66494095     0.12700
C953        C  0.67352261  0.04243737  0.68994423    -0.16600
C954        C  0.68994979  0.05013198  0.66432041    -0.31700
H955        H  0.66898601  0.01593843  0.69610747     0.12500
H956        H  0.69376521  0.07721241  0.65958120     0.13000
C957        C  0.68551928  0.03560678  0.83682182    -0.16600
C958        C  0.70009393  0.05956100  0.81963575    -0.31700
H959        H  0.66161356  0.03073930  0.83497078     0.12500
H960        H  0.72406191  0.06325584  0.82280208     0.13000
C961        C  0.70268367  0.45050294  0.92408553    -0.16600
C962        C  0.67481698  0.44201761  0.93419829    -0.31700
H963        H  0.72162870  0.43958897  0.93544713     0.12500
H964        H  0.65545310  0.45251710  0.92335957     0.13000
C965        C  0.54442494  0.17393972  0.83970505    -0.13500
C966        C  0.54456857  0.20975111  0.84302901     0.08700
C967        C  0.57130057  0.22839078  0.83817949    -0.13500
C968        C  0.59702543  0.21191736  0.82759718    -0.13500
C969        C  0.59638256  0.17650057  0.82115349     0.08700
C970        C  0.57028614  0.15730895  0.82870913    -0.13500
H971        H  0.52393843  0.15920487  0.84383871     0.12700
H972        H  0.57186813  0.25598562  0.84125919     0.12700
H973        H  0.61685436  0.22734960  0.82212814     0.12700
H974        H  0.56909870  0.13008014  0.82366138     0.12700
C975        C  0.56079614  0.26918106  0.91539529    -0.13500
C976        C  0.53529955  0.28819255  0.90934131     0.08700
C977        C  0.53358834  0.32197151  0.92091256    -0.13500
C978        C  0.55710095  0.33660019  0.93762129    -0.13500
C979        C  0.58284126  0.31776487  0.94313005     0.08700
C980        C  0.58430769  0.28381046  0.93201707    -0.13500
H981        H  0.56312689  0.24330194  0.90654963     0.12700
H982        H  0.51406089  0.33716632  0.91701571     0.12700
H983        H  0.55500508  0.36255971  0.94643396     0.12700
H984        H  0.60357374  0.26833984  0.93637179     0.12700
C985        C  0.40733166  0.17462509  0.90873154    -0.13500
C986        C  0.40277240  0.18726952  0.93893794     0.08700
C987        C  0.42395280  0.21012025  0.95172997    -0.13500
C988        C  0.44868480  0.22145587  0.93409268    -0.13500
C989        C  0.45218092  0.21061263  0.90328972     0.08700
C990        C  0.43171324  0.18667233  0.89081447    -0.13500
H991        H  0.39141517  0.15668591  0.89864989     0.12700
H992        H  0.42116249  0.21951388  0.97532234     0.12700
H993        H  0.46386569  0.24052693  0.94374828     0.12700
H994        H  0.43381402  0.17874128  0.86673810     0.12700
C995        C  0.39383755  0.19458890  0.58868656    -0.13500
C996        C  0.39828622  0.17064513  0.56457074     0.08700
C997        C  0.42687400  0.15654484  0.55995018    -0.13500
C998        C  0.45089165  0.16768096  0.57791937    -0.13500
C999        C  0.44662903  0.19290565  0.60083213     0.08700
C1000       C  0.41778024  0.20527257  0.60688764    -0.13500
H1001       H  0.37202182  0.20553579  0.59307908     0.12700
H1002       H  0.43102915  0.13808262  0.54148636     0.12700
H1003       H  0.47296892  0.15754843  0.57322821     0.12700
H1004       H  0.41377523  0.22324556  0.62567774     0.12700
C1005       C  0.31126314  0.04680016  0.91449167    -0.16600
C1006       C  0.29688612  0.07231263  0.92924504    -0.31700
H1007       H  0.33456010  0.04161467  0.91887512     0.12500
H1008       H  0.27355338  0.07637864  0.92385104     0.13000
C1009       C  0.29230744  0.06226908  0.55601068    -0.16600
C1010       C  0.30678891  0.04782758  0.57967896    -0.31700
H1011       H  0.26830773  0.05740336  0.55464254     0.12500
H1012       H  0.33073513  0.05174122  0.58223074     0.13000
C1013       C  0.45890222  0.30550335  0.68592607    -0.13500
C1014       C  0.45507796  0.28631013  0.65856257     0.08700
C1015       C  0.42953300  0.29194536  0.64095066    -0.13500
C1016       C  0.40659179  0.31282218  0.65248550    -0.13500
C1017       C  0.40968503  0.32996288  0.68090447     0.08700
C1018       C  0.43659499  0.32736928  0.69678121    -0.13500
H1019       H  0.47868290  0.30280300  0.69957786     0.12700
H1020       H  0.42623517  0.27882386  0.61913142     0.12700
H1021       H  0.38604959  0.31455166  0.63985645     0.12700
H1022       H  0.43945704  0.34017224  0.71895146     0.12700
C1023       C  0.42814393  0.34144293  0.81470078    -0.13500
C1024       C  0.41441579  0.32353097  0.79047091     0.08700
C1025       C  0.42635720  0.29218260  0.78024465    -0.13500
C1026       C  0.45037624  0.27802208  0.79516573    -0.13500
C1027       C  0.46319453  0.29479395  0.82073086     0.08700
C1028       C  0.45196119  0.32705354  0.82996503    -0.13500
H1029       H  0.41954808  0.36577765  0.82284739     0.12700
H1030       H  0.41660228  0.27800725  0.76114409     0.12700
H1031       H  0.45751393  0.25270286  0.78807593     0.12700
H1032       H  0.45988765  0.34036544  0.85032964     0.12700
C1033       C  0.29571246  0.44378104  0.83787613    -0.16600
C1034       C  0.32150058  0.44543369  0.82106587    -0.31700
H1035       H  0.27888522  0.42424183  0.83257427     0.12500
H1036       H  0.33799613  0.46571135  0.82506077     0.13000
C1037       C  0.31927489  0.45530665  0.68386015    -0.16600
C1038       C  0.29173780  0.46018677  0.67305476    -0.31700
H1039       H  0.33868205  0.46750643  0.67273303     0.12500
H1040       H  0.27295401  0.44668403  0.68417170     0.13000
C1041       C  0.26489933  0.29419522  0.66174733    -0.16600
C1042       C  0.25897070  0.31921715  0.68217908    -0.31700
H1043       H  0.28765755  0.28552638  0.65777868     0.12500
H1044       H  0.23619388  0.32823257  0.68524132     0.13000
C1045       C  0.26121197  0.22693159  0.57824274    -0.16600
C1046       C  0.25755360  0.19760832  0.56240974    -0.31700
H1047       H  0.27879118  0.24522221  0.57161168     0.12500
H1048       H  0.23886083  0.18042880  0.56814664     0.13000
C1049       C  0.26069987  0.20623405  0.94516458    -0.16600
C1050       C  0.26843207  0.23074412  0.92448997    -0.31700
H1051       H  0.23874685  0.19389828  0.94373482     0.12500
H1052       H  0.28945174  0.24490638  0.92671196     0.13000
C1053       C  0.26453954  0.30218369  0.83456680    -0.16600
C1054       C  0.27807884  0.29169877  0.80780540    -0.31700
H1055       H  0.26657510  0.32877124  0.84203832     0.12500
H1056       H  0.27810191  0.26447555  0.80224747     0.13000
C1057       C  0.24191069  0.06351397  0.81399124    -0.16600
C1058       C  0.23809310  0.03254666  0.82703402    -0.31700
H1059       H  0.25947769  0.08096045  0.82159701     0.12500
H1060       H  0.22066296  0.01517355  0.81877868     0.13000
C1061       C  0.22967863  0.06400735  0.67804331    -0.16600
C1062       C  0.22318317  0.03617521  0.66098524    -0.31700
H1063       H  0.25011446  0.07862299  0.67277965     0.12500
H1064       H  0.20415233  0.01981002  0.66746064     0.13000
C1065       C  0.08134403  0.09313686  0.67678926    -0.13500
C1066       C  0.08966188  0.07683526  0.70377607     0.08700
C1067       C  0.07449669  0.04652430  0.71285352    -0.13500
C1068       C  0.05198057  0.03207560  0.69478765    -0.13500
C1069       C  0.04428523  0.04747030  0.66708339     0.08700
C1070       C  0.05901500  0.07839625  0.65840714    -0.13500
H1071       H  0.09294748  0.11632071  0.66927325     0.12700
H1072       H  0.08033779  0.03376221  0.73392946     0.12700
H1073       H  0.04110402  0.50785646  0.69362039     0.12700
H1074       H  0.05407134  0.09068224  0.63688114     0.12700
C1075       C  0.17577733  0.20327754  0.69314342    -0.16600
C1076       C  0.19060262  0.19777418  0.66624072    -0.31700
H1077       H  0.16853690  0.22879044  0.69978400     0.12500
H1078       H  0.19655127  0.17160372  0.66012787     0.13000
C1079       C  0.19924181  0.18528761  0.82742009    -0.16600
C1080       C  0.18659763  0.20879141  0.84596476    -0.31700
H1081       H  0.22347616  0.18296139  0.82788146     0.12500
H1082       H  0.16265209  0.21304072  0.84541984     0.13000
C1083       C  0.23534855  0.43587965  0.56374756    -0.16600
C1084       C  0.22767547  0.45497906  0.58857013    -0.31700
H1085       H  0.25887076  0.43240812  0.55763897     0.12500
H1086       H  0.20441370  0.45660111  0.59634331     0.13000
C1087       C  0.22259392  0.45682747  0.91518835    -0.16600
C1088       C  0.22961196  0.42902265  0.93135661    -0.31700
H1089       H  0.20103133  0.46872705  0.91911642     0.12500
H1090       H  0.25120416  0.41721400  0.92720273     0.13000
C1091       C  0.05923604  0.41115790  0.56058920    -0.13500
C1092       C  0.08796843  0.41312575  0.57319677     0.08700
C1093       C  0.09302243  0.43593130  0.59804184    -0.13500
C1094       C  0.07030940  0.45755600  0.60894999    -0.13500
C1095       C  0.04240188  0.45747360  0.59464461     0.08700
C1096       C  0.03680556  0.43346521  0.57091000    -0.13500
H1097       H  0.05482261  0.39434328  0.54101474     0.12700
H1098       H  0.11504350  0.43835219  0.60787696     0.12700
H1099       H  0.07518845  0.47583587  0.62730611     0.12700
H1100       H  0.01535200  0.43263359  0.55976482     0.12700
C1101       C  0.17293120  0.30413750  0.93812788    -0.16600
C1102       C  0.20018010  0.30529221  0.92387001    -0.31700
H1103       H  0.15437206  0.28933906  0.92884573     0.12500
H1104       H  0.21770730  0.32152506  0.93361253     0.13000
C1105       C  0.19709067  0.30034993  0.56162182    -0.16600
C1106       C  0.18376625  0.29383998  0.58918997    -0.31700
H1107       H  0.21921078  0.29049482  0.55623991     0.12500
H1108       H  0.16115736  0.30239049  0.59432726     0.13000
C1109       C  0.04843677  0.06048645  0.84104210    -0.13500
C1110       C  0.04878679  0.02477383  0.84354205     0.08700
C1111       C  0.07336028  0.00683881  0.83099622    -0.13500
C1112       C  0.09792950  0.02427851  0.81788043    -0.13500
C1113       C  0.09829238  0.06010385  0.81635646     0.08700
C1114       C  0.07297297  0.07804481  0.82733978    -0.13500
H1115       H  0.02997462  0.07483859  0.85100977     0.12700
H1116       H  0.07407996  0.97919656  0.83262192     0.12700
H1117       H  0.11652324  0.00962102  0.80861105     0.12700
H1118       H  0.07232655  0.10567118  0.82569143     0.12700
C1119       C  0.05073399  0.47410877  0.95326870    -0.13500
C1120       C  0.03278741  0.45453740  0.93301062     0.08700
C1121       C  0.04047151  0.42021797  0.92673585    -0.13500
C1122       C  0.06609244  0.40657698  0.93918111    -0.13500
C1123       C  0.08504433  0.42740341  0.95691557     0.08700
C1124       C  0.07677241  0.46078354  0.96477647    -0.13500
H1125       H  0.04618024  0.50083778  0.95793335     0.12700
H1126       H  0.02814630  0.40450108  0.91049076     0.12700
H1127       H  0.07185722  0.38029458  0.93385261     0.12700
H1128       H  0.09064529  0.47665454  0.97964910     0.12700
C1129       C  0.94212991  0.06590181  0.53939079    -0.13500
C1130       C  0.91857798  0.08118154  0.55629661     0.08700
C1131       C  0.91893011  0.08222912  0.58852393    -0.13500
C1132       C  0.94223150  0.06706494  0.60379915    -0.13500
C1133       C  0.96464810  0.04886783  0.58718616     0.08700
C1134       C  0.96492470  0.04954106  0.55467057    -0.13500
H1135       H  0.94203161  0.06515679  0.51429853     0.12700
H1136       H  0.90097247  0.09417181  0.60179362     0.12700
H1137       H  0.94176252  0.06761258  0.62889275     0.12700
H1138       H  0.98193907  0.03684774  0.54084359     0.12700
C1139       C  0.90630877  0.03177272  0.92880751    -0.13500
C1140       C  0.90460219  0.06750555  0.93193843     0.08700
C1141       C  0.92833434  0.08822858  0.92031981    -0.13500
C1142       C  0.95453938  0.07312527  0.90833127    -0.13500
C1143       C  0.95695754  0.03736198  0.90793984     0.08700
C1144       C  0.93224567  0.01687243  0.91701351    -0.13500
H1145       H  0.88826124  0.01524379  0.93742005     0.12700
H1146       H  0.92757005  0.11584210  0.92274627     0.12700
H1147       H  0.97340599  0.08921099  0.90108461     0.12700
H1148       H  0.93361095  0.98918753  0.91637656     0.12700
C1149       C  0.75593186  0.04215613  0.92378844    -0.16600
C1150       C  0.77599355  0.02904512  0.94249501    -0.31700
H1151       H  0.74989575  0.06885552  0.92705746     0.12500
H1152       H  0.78407926  0.00329298  0.93878079     0.13000
C1153       C  0.77087570  0.06761451  0.57074911    -0.16600
C1154       C  0.77237379  0.03643804  0.58358625    -0.31700
H1155       H  0.75351613  0.08519015  0.57799647     0.12500
H1156       H  0.78921940  0.01869250  0.57512403     0.13000
C1157       C  0.92135564  0.47132711  0.70263034    -0.13500
C1158       C  0.91318154  0.43703808  0.69599707     0.08700
C1159       C  0.93068659  0.41843532  0.67438015    -0.13500
C1160       C  0.95459037  0.43474760  0.65823532    -0.13500
C1161       C  0.96151004  0.46947729  0.66409052     0.08700
C1162       C  0.94521467  0.48726666  0.68691788    -0.13500
H1163       H  0.90887046  0.48630865  0.71963042     0.12700
H1164       H  0.92521290  0.39187510  0.66915807     0.12700
H1165       H  0.96646494  0.42095929  0.63995324     0.12700
H1166       H  0.96858747  0.99640763  0.70555844     0.12700
C1167       C  0.90563044  0.46652214  0.82586641    -0.13500
C1168       C  0.90594143  0.43263339  0.81459049     0.08700
C1169       C  0.93011411  0.41181523  0.82154999    -0.13500
C1170       C  0.95358377  0.42469569  0.83927823    -0.13500
C1171       C  0.95351963  0.45876078  0.85008367     0.08700
C1172       C  0.92931174  0.47953074  0.84325713    -0.13500
H1173       H  0.88748482  0.48328268  0.82054023     0.12700
H1174       H  0.93109638  0.38567832  0.81292343     0.12700
H1175       H  0.97209276  0.40820882  0.84398280     0.12700
H1176       H  0.93277045  0.00569007  0.84796682     0.12700
C1177       C  0.76420447  0.43656536  0.82137330    -0.16600
C1178       C  0.77170642  0.46139972  0.84195902    -0.31700
H1179       H  0.74112465  0.42720941  0.82096246     0.12500
H1180       H  0.79486509  0.46998398  0.84389807     0.13000
C1181       C  0.76574021  0.45137553  0.69344272    -0.16600
C1182       C  0.77268639  0.46553089  0.66588180    -0.31700
H1183       H  0.74258724  0.45154417  0.70182367     0.12500
H1184       H  0.79490296  0.46264054  0.65549664     0.13000
C1185       C  0.72743602  0.22262506  0.82877593    -0.16600
C1186       C  0.73543387  0.19838764  0.80777575    -0.31700
H1187       H  0.70613294  0.23528296  0.82703657     0.12500
H1188       H  0.75757057  0.18746476  0.80872466     0.13000
C1189       C  0.73088085  0.29722787  0.91753695    -0.16600
C1190       C  0.72019718  0.28917053  0.94606715    -0.31700
H1191       H  0.72522931  0.32147328  0.90737917     0.12500
H1192       H  0.72354067  0.26349609  0.95453378     0.13000
C1193       C  0.79503820  0.30241570  0.83066320    -0.16600
C1194       C  0.82244475  0.30499199  0.81703331    -0.31700
H1195       H  0.77709797  0.31756660  0.82174608     0.12500
H1196       H  0.84128365  0.29128493  0.82572083     0.13000
C1197       C  0.80802463  0.20546010  0.90759673    -0.16600
C1198       C  0.79462615  0.17971796  0.92337437    -0.31700
H1199       H  0.83199631  0.21022000  0.90898159     0.12500
H1200       H  0.77064079  0.17562818  0.92083546     0.13000
C1201       C  0.73636990  0.29389568  0.58165157    -0.16600
C1202       C  0.72336081  0.28421397  0.55528439    -0.31700
H1203       H  0.73211360  0.31894014  0.59189265     0.12500
H1204       H  0.72553550  0.25795209  0.54698603     0.13000
C1205       C  0.72920100  0.21970438  0.66650356    -0.16600
C1206       C  0.72131492  0.18666829  0.67111145    -0.31700
H1207       H  0.72121975  0.23921691  0.68269156     0.12500
H1208       H  0.72878089  0.16709330  0.65481033     0.13000
C1209       C  0.79799909  0.30274977  0.66257677    -0.16600
C1210       C  0.82313458  0.30544411  0.67899744    -0.31700
H1211       H  0.78023203  0.32072058  0.66771500     0.12500
H1212       H  0.84105808  0.28740918  0.67500498     0.13000
C1213       C  0.81117900  0.19940738  0.58601788    -0.16600
C1214       C  0.82661038  0.20620560  0.55954247    -0.31700
H1215       H  0.80713170  0.17257550  0.59154973     0.12500
H1216       H  0.83047181  0.23255279  0.55250813     0.13000
C1217       C  0.78463421  0.72787514  0.10238197     0.86400
C1218       C  0.76435228  0.74892105  0.08234870    -0.53900
C1219       C  0.74677587  0.77126499  0.09852797     0.09300
C1220       C  0.75034955  0.77005628  0.13368550     0.20200
C1221       C  0.80227974  0.75458191  0.12214650    -0.54600
C1222       C  0.78387040  0.77666801  0.13865635     0.09400
C1223       C  0.76315521  0.71042210  0.12586982    -0.54100
C1224       C  0.74517893  0.73232197  0.14262064     0.03900
H1225       H  0.76449117  0.74704812  0.05722297     0.14500
H1226       H  0.73554409  0.78800359  0.14674622     0.00200
H1227       H  0.82652989  0.75556678  0.12319572     0.14800
H1228       H  0.76341187  0.68301692  0.12923985     0.14600
C1229       C  0.78945351  0.72286508  0.39231257     0.86400
C1230       C  0.76327677  0.70713171  0.37428732    -0.53900
C1231       C  0.74503935  0.73057364  0.36166869     0.09300
C1232       C  0.75406128  0.76784342  0.36943156     0.20200
C1233       C  0.80550077  0.74709531  0.36905536    -0.54600
C1234       C  0.78664721  0.77058995  0.35678454     0.09400
C1235       C  0.77496356  0.74641838  0.41662836    -0.54100
C1236       C  0.75672870  0.77008946  0.40496370     0.09900
H1237       H  0.76050197  0.67974868  0.37017228     0.14500
H1238       H  0.73890249  0.78699138  0.35977101     0.00200
H1239       H  0.82886862  0.74462971  0.36210124     0.14800
H1240       H  0.77902677  0.74474824  0.44126557     0.14600
O1241       O  0.85056625  0.83576254  0.28475630    -0.81900
C1242       C  0.78396680  0.93098419  0.21699467     0.97400
O1243       O  0.77434153  0.90529228  0.23174809    -0.71100
O1244       O  0.79904646  0.84734036  0.21369516    -0.74600
Al1245     Al  0.79300995  0.86938449  0.25302218     1.49000
C1246       C  0.82004366  0.82754272  0.20582583     0.92700
O1247       O  0.87741702  0.88304228  0.21241323    -0.80900
O1248       O  0.85950714  0.93105597  0.29005204    -0.74400
Al1249     Al  0.86174847  0.86072002  0.24855225     1.90100
O1250       O  0.86912411  0.93574571  0.22822842    -0.73500
O1251       O  0.80202487  0.94070297  0.28415050    -0.73300
O1252       O  0.81063874  0.94170095  0.21986718    -0.79000
O1253       O  0.78247137  0.88950798  0.29223396    -0.77200
O1254       O  0.82989726  0.88789931  0.25225902    -1.13300
O1255       O  0.80284966  0.82946902  0.27529147    -0.72500
C1256       C  0.82525085  0.82254635  0.29112854     0.98200
C1257       C  0.88347670  0.91473914  0.21141815     0.94600
Al1258     Al  0.83480054  0.93331976  0.25516476     1.55600
O1259       O  0.84369024  0.82726012  0.22121989    -0.77200
C1260       C  0.78497312  0.92078704  0.29969723     0.98700
C1261       C  0.88308002  0.91395920  0.29152170     0.93600
O1262       O  0.88693722  0.88789575  0.27444276    -0.82500
O1263       O  0.85606602  0.66442328  0.45774058    -0.81900
C1264       C  0.79018625  0.57642231  0.05020893     0.97400
O1265       O  0.78572244  0.60605008  0.04109631    -0.71100
O1266       O  0.79830606  0.66603298  0.02108793    -0.74600
Al1267     Al  0.79773904  0.63552754  0.49750843     1.49000
C1268       C  0.82108681  0.68059649  0.03274219     0.92700
O1269       O  0.88836872  0.62332458  0.01664330    -0.80900
O1270       O  0.85609161  0.56964575  0.45578610    -0.74400
Al1271     Al  0.85850902  0.64316716  0.99021836     1.90100
O1272       O  0.86251354  0.58246971  0.04045898    -0.73500
O1273       O  0.79882493  0.56191705  0.47063760    -0.73300
O1274       O  0.80771428  0.55706365  0.03525987    -0.79000
O1275       O  0.78375164  0.61361074  0.46105160    -0.77200
O1276       O  0.83299965  0.61544362  0.49523522    -1.13300
O1277       O  0.80914262  0.67309614  0.47153160    -0.72500
C1278       C  0.83158125  0.67894969  0.45384758     0.98200
C1279       C  0.88603233  0.60062936  0.03743846     0.94600
Al1280     Al  0.83443189  0.56977458  0.49409310     1.55600
O1281       O  0.84718476  0.67181994  0.02459533    -0.77200
C1282       C  0.78292248  0.58186372  0.45555837     0.98700
C1283       C  0.88158147  0.58375774  0.45199829     0.93600
O1284       O  0.88864466  0.61032227  0.46739290    -0.82500
C1285       C  0.01200466  0.95879979  0.41262411     0.86400
C1286       C  0.99190209  0.98732313  0.42585683    -0.53900
C1287       C  0.97498531  0.50058960  0.40268867     0.09300
C1288       C  0.98614894  0.49296720  0.36957995     0.20200
C1289       C  0.99215921  0.93985017  0.38928380    -0.54600
C1290       C  0.98074379  0.96069835  0.36738484     0.09400
C1291       C  0.03601027  0.97707971  0.39307728    -0.54100
C1292       C  0.02065466  0.49462718  0.37143739     0.09900
H1293       H  0.97870826  0.48073026  0.44850085     0.14500
H1294       H  0.97714850  0.51072348  0.35249945     0.00200
H1295       H  0.98579915  0.91301234  0.39157423     0.14800
H1296       H  0.05970830  0.97305233  0.39633388     0.14600
O1297       O  0.15445795  0.82229366  0.47572590    -0.81900
C1298       C  0.21508329  0.93919011  0.03201558     0.97400
O1299       O  0.22544416  0.91463733  0.01634484    -0.71100
O1300       O  0.20356215  0.85856652  0.04077643    -0.74600
Al1301     Al  0.20613699  0.87485249  0.99993575     1.49000
C1302       C  0.18425255  0.83770516  0.05159604     0.92700
O1303       O  0.12373895  0.88599910  0.04682947    -0.80900
O1304       O  0.12071645  0.92686012  0.49465628    -0.74400
Al1305     Al  0.13814539  0.86095901  0.01061467     1.90100
O1306       O  0.13101775  0.93702022  0.02689923    -0.73500
O1307       O  0.17467229  0.94716757  0.47594028    -0.73300
O1308       O  0.18808556  0.94727316  0.03031579    -0.79000
O1309       O  0.21262917  0.91337522  0.46718350    -0.77200
O1310       O  0.16880560  0.89017442  0.00278010    -1.13300
O1311       O  0.19048011  0.85354098  0.45516215    -0.72500
C1312       C  0.17351758  0.82763155  0.45413308     0.98200
C1313       C  0.11821881  0.91778579  0.04653460     0.94600
Al1314     Al  0.16266270  0.93431501  0.99764101     1.55600
O1315       O  0.15982186  0.83204229  0.03800991    -0.77200
C1316       C  0.19836989  0.93992489  0.46109803     0.98700
C1317       C  0.10692596  0.90443963  0.47850656     0.93600
O1318       O  0.11621505  0.87410121  0.47560027    -0.82500
O1319       O  0.13534809  0.65412385  0.29839701    -0.81900
C1320       C  0.20345240  0.57065571  0.21649268     0.97400
O1321       O  0.21253798  0.59471449  0.23354891    -0.71100
O1322       O  0.18334727  0.64911878  0.21927309    -0.74600
Al1323     Al  0.19209968  0.62808318  0.25717955     1.49000
C1324       C  0.16214218  0.66955487  0.21597662     0.92700
O1325       O  0.10842352  0.60969910  0.22356673    -0.80900
O1326       O  0.13194890  0.56047395  0.29713158    -0.74400
Al1327     Al  0.12359995  0.63125691  0.26024972     1.90100
O1328       O  0.11974959  0.55690116  0.23553335    -0.73500
O1329       O  0.18988873  0.55585274  0.28470897    -0.73300
O1330       O  0.17809414  0.55652143  0.22148115    -0.79000
O1331       O  0.20422819  0.60888849  0.29486493    -0.77200
O1332       O  0.15680970  0.60657877  0.25885960    -1.13300
O1333       O  0.18029627  0.66691915  0.28048168    -0.72500
C1334       C  0.16003666  0.67018500  0.30108582     0.98200
C1335       C  0.10427985  0.57755869  0.22064252     0.94600
Al1336     Al  0.15510081  0.56109692  0.25957462     1.55600
O1337       O  0.13942215  0.66837883  0.23420672    -0.77200
C1338       C  0.20493465  0.57729534  0.30053566     0.98700
C1339       C  0.10674725  0.57428871  0.30048220     0.93600
O1340       O  0.10032860  0.60023226  0.28515832    -0.82500
C1341       C  0.20886466  0.73263694  0.34890913     0.86400
C1342       C  0.22521314  0.70891902  0.37083554    -0.53900
C1343       C  0.24434263  0.72585823  0.39056374     0.09300
C1344       C  0.24559822  0.76506244  0.38577385     0.20200
C1345       C  0.19321771  0.75870028  0.37036137    -0.54600
C1346       C  0.21255640  0.77562893  0.38971256     0.09400
C1347       C  0.23403670  0.75304727  0.33243184    -0.54100
C1348       C  0.25314000  0.77017486  0.35122532     0.09900
H1349       H  0.22120568  0.68140363  0.37142717     0.14500
H1350       H  0.26085794  0.77953799  0.40126214     0.00200
H1351       H  0.16940929  0.76368907  0.36988496     0.14800
H1352       H  0.23663081  0.75430531  0.30736429     0.14600
C1353       C  0.19838666  0.72215908  0.14933568     0.86400
C1354       C  0.21504236  0.74853060  0.16942437    -0.53900
C1355       C  0.22983604  0.77363031  0.15297610     0.09300
C1356       C  0.22665658  0.76997186  0.11792104     0.20200
C1357       C  0.17761454  0.74331072  0.12927593    -0.54600
C1358       C  0.19253915  0.76864498  0.11282021     0.09400
C1359       C  0.22223848  0.70887897  0.12628812    -0.54100
C1360       C  0.23712370  0.73380508  0.10972519     0.09900
H1361       H  0.21521243  0.74725411  0.19452477     0.14500
H1362       H  0.23976163  0.78954649  0.10475471     0.00200
H1363       H  0.15372618  0.73818963  0.12762353     0.14800
H1364       H  0.22559150  0.68171047  0.12251699     0.14600
C1365       C  0.97347659  0.52627191  0.10314267     0.86400
C1366       C  0.95462708  0.49749617  0.11804773    -0.53900
C1367       C  0.97225917  0.98022505  0.13478288     0.09300
C1368       C  0.00625697  0.98759432  0.13432579     0.20200
C1369       C  0.98964633  0.54412220  0.12986945    -0.54600
C1370       C  0.00674131  0.52319088  0.14699220     0.09400
C1371       C  0.99860904  0.50713917  0.08501244    -0.54100
C1372       C  0.01579347  0.98481930  0.10006355     0.09900
H1373       H  0.93261881  0.99878933  0.11437585     0.14500
H1374       H  0.01888620  0.97048967  0.14933306     0.00200
H1375       H  0.98923331  0.57171008  0.13327454     0.14800
H1376       H  0.00567261  0.00726473  0.05649429     0.14600
O1377       O  0.34799521  0.91677208  0.20363429    -0.81900
C1378       C  0.28905059  0.82809432  0.29026716     0.97400
O1379       O  0.27696340  0.84711200  0.27087818    -0.71100
O1380       O  0.29690491  0.90922540  0.27457938    -0.74600
Al1381     Al  0.29232513  0.87898105  0.24092200     1.49000
C1382       C  0.31810821  0.92918888  0.28189796     0.92700
O1383       O  0.37974811  0.87921882  0.27680349    -0.80900
O1384       O  0.35795486  0.81861489  0.20799436    -0.74400
Al1385     Al  0.36099363  0.89535808  0.24041429     1.90100
O1386       O  0.37299332  0.82475726  0.26719075    -0.73500
O1387       O  0.30228812  0.80396701  0.22688176    -0.73300
O1388       O  0.31610251  0.81932470  0.28655892    -0.79000
O1389       O  0.28266968  0.84907957  0.20674686    -0.77200
O1390       O  0.33010154  0.86531302  0.24257008    -1.13300
O1391       O  0.29948339  0.91414828  0.21132647    -0.72500
C1392       C  0.32211838  0.92548864  0.19642670     0.98200
C1393       C  0.38722081  0.84860597  0.28003786     0.94600
Al1394     Al  0.33672884  0.82071863  0.24681125     1.55600
O1395       O  0.34280448  0.92910864  0.26702260    -0.77200
C1396       C  0.28456919  0.81696057  0.20855613     0.98700
C1397       C  0.38088358  0.83710909  0.20148136     0.93600
O1398       O  0.38491716  0.86627345  0.21414358    -0.82500
O1399       O  0.34388006  0.59146984  0.02894848    -0.81900
C1400       C  0.29284793  0.70234700  0.46023540     0.97400
O1401       O  0.27650920  0.68011010  0.47373907    -0.71100
O1402       O  0.29439381  0.62147910  0.45613051    -0.74600
Al1403     Al  0.28554101  0.63194122  0.00561262     1.49000
C1404       C  0.30848591  0.59456920  0.45151810     0.92700
O1405       O  0.37370919  0.63744576  0.46442181    -0.80900
O1406       O  0.35540605  0.68652413  0.03673649    -0.74400
Al1407     Al  0.35181156  0.61646229  0.49838492     1.90100
O1408       O  0.37319070  0.68971969  0.48448245    -0.73500
O1409       O  0.29812437  0.70351530  0.03151822    -0.73300
O1410       O  0.31910670  0.70843681  0.46924519    -0.79000
O1411       O  0.28203268  0.65253019  0.04461345    -0.77200
O1412       O  0.32291477  0.64684202  0.00004083    -1.13300
O1413       O  0.29492058  0.59194909  0.02803532    -0.72500
C1414       C  0.31873027  0.58133673  0.03932853     0.98200
C1415       C  0.38464353  0.66768015  0.46624189     0.94600
Al1416     Al  0.33037882  0.69185950  0.00224644     1.55600
O1417       O  0.33036895  0.58731054  0.46830075    -0.77200
C1418       C  0.28463239  0.68383200  0.05047829     0.98700
C1419       C  0.37831852  0.66784232  0.03598658     0.93600
O1420       O  0.38074510  0.64282534  0.01715040    -0.82500
C1421       C  0.28690340  0.52164468  0.39550947     0.86400
C1422       C  0.26444991  0.50181707  0.41634872    -0.53900
C1423       C  0.24621065  0.97959943  0.39572950     0.09300
C1424       C  0.24952197  0.98211106  0.36025860     0.20200
C1425       C  0.30281168  0.99370573  0.36858690    -0.54600
C1426       C  0.28248090  0.97398212  0.35262690     0.09400
C1427       C  0.26761181  0.54097668  0.37265504    -0.54100
C1428       C  0.24771000  0.52049282  0.35699070     0.09900
H1429       H  0.26483517  0.50294559  0.44148978     0.14500
H1430       H  0.23325213  0.96562632  0.34756908     0.00200
H1431       H  0.32690296  0.99141911  0.36566372     0.14800
H1432       H  0.27017035  0.56833949  0.36930597     0.14600
C1433       C  0.28257964  0.53595583  0.10839298     0.86400
C1434       C  0.25930663  0.55089209  0.13152783    -0.53900
C1435       C  0.24223276  0.52663519  0.14684791     0.09300
C1436       C  0.25031186  0.99171184  0.13218270     0.20200
C1437       C  0.30325487  0.00751898  0.12426850    -0.54600
C1438       C  0.28345112  0.98477192  0.13855368     0.09400
C1439       C  0.26426650  0.51247472  0.08717154    -0.54100
C1440       C  0.24825548  0.99266327  0.09692476     0.09900
H1441       H  0.25653868  0.57821922  0.13524066     0.14500
H1442       H  0.23422777  0.97322830  0.14325096     0.00200
H1443       H  0.32733867  0.00696625  0.12673611     0.14800
H1444       H  0.26386843  0.51541156  0.06219836     0.14600
C1445       C  0.47519516  0.78087967  0.35021298     0.86400
C1446       C  0.45566050  0.75742961  0.37072532    -0.53900
C1447       C  0.47104903  0.73835860  0.39081683     0.09300
C1448       C  0.50527722  0.74498805  0.38903413     0.20200
C1449       C  0.49400047  0.80259450  0.37240254    -0.54600
C1450       C  0.51006206  0.78424246  0.39249983     0.09400
C1451       C  0.49802545  0.75640270  0.33438057    -0.54100
C1452       C  0.51378021  0.73775810  0.35490163     0.09900
H1453       H  0.43141545  0.75571285  0.36917802     0.14500
H1454       H  0.51806006  0.72953571  0.40534766     0.00200
H1455       H  0.49498056  0.83039315  0.37164549     0.14800
H1456       H  0.50266684  0.75458501  0.30970048     0.14600
C1457       C  0.69845619  0.51776814  0.36396432     0.86400
C1458       C  0.71941067  0.49615135  0.34327088    -0.53900
C1459       C  0.74955228  0.98365575  0.35763408     0.09300
C1460       C  0.74608668  0.99033860  0.39286823     0.20200
C1461       C  0.68317533  0.49163725  0.38618963    -0.54600
C1462       C  0.71334760  0.97931276  0.40085720     0.09400
C1463       C  0.71923527  0.53918772  0.38487371    -0.54100
C1464       C  0.73923503  0.52041281  0.40068841     0.09900
H1465       H  0.71780182  0.49509526  0.31821526     0.14500
H1466       H  0.76288359  0.97698909  0.40653014     0.00200
H1467       H  0.66841435  0.99037942  0.38586078     0.14800
H1468       H  0.71759334  0.56678267  0.38681065     0.14600
O1469       O  0.64346637  0.58255417  0.22634214    -0.81900
C1470       C  0.71120978  0.68519700  0.29054895     0.97400
O1471       O  0.72132777  0.66306353  0.27167506    -0.71100
O1472       O  0.70069372  0.60380158  0.28835015    -0.74600
Al1473     Al  0.70183293  0.62558981  0.25044979     1.49000
C1474       C  0.68141036  0.58411210  0.30066999     0.92700
O1475       O  0.61758211  0.63459041  0.29743137    -0.80900
O1476       O  0.63314573  0.68218150  0.22156363    -0.74400
Al1477     Al  0.63374266  0.61116044  0.26176887     1.90100
O1478       O  0.62674816  0.68743328  0.28331141    -0.73500
O1479       O  0.69116574  0.69663080  0.22405818    -0.73300
O1480       O  0.68459806  0.69490637  0.28889326    -0.79000
O1481       O  0.70682887  0.64553710  0.21147008    -0.77200
O1482       O  0.66471050  0.64079882  0.25568453    -1.13300
O1483       O  0.69216669  0.58461454  0.22830111    -0.72500
C1484       C  0.66865063  0.57198291  0.21713733     0.98200
C1485       C  0.61258686  0.66618926  0.29997028     0.94600
Al1486     Al  0.65943177  0.68621146  0.25461568     1.55600
O1487       O  0.65491659  0.58189105  0.29055827    -0.77200
C1488       C  0.70512971  0.67677977  0.20561130     0.98700
C1489       C  0.61010723  0.66299862  0.21987520     0.93600
O1490       O  0.60749447  0.63547755  0.23514615    -0.82500
C1491       C  0.70531855  0.52461922  0.14799081     0.86400
C1492       C  0.72687831  0.54262782  0.12483890    -0.53900
C1493       C  0.74584141  0.52121240  0.10888791     0.09300
C1494       C  0.74097001  0.98088128  0.11863531     0.20200
C1495       C  0.68872132  0.49736649  0.12794759    -0.54600
C1496       C  0.70732236  0.97313160  0.11341305     0.09400
C1497       C  0.72583911  0.50424222  0.16851637    -0.54100
C1498       C  0.74461960  0.98136831  0.15398295     0.09900
H1499       H  0.72628242  0.56999450  0.12119391     0.14500
H1500       H  0.75625310  0.96293476  0.10621698     0.00200
H1501       H  0.66425669  0.99388408  0.12786710     0.14800
H1502       H  0.72626008  0.50754759  0.19351336     0.14600
O1503       O  0.64565829  0.91808394  0.03320328    -0.81900
C1504       C  0.69926398  0.81914754  0.45329974     0.97400
O1505       O  0.71403538  0.83888428  0.47128448    -0.71100
O1506       O  0.69635003  0.90248536  0.46974587    -0.74600
Al1507     Al  0.69735535  0.87360881  0.00547326     1.49000
C1508       C  0.67596914  0.92355266  0.46518382     0.92700
O1509       O  0.61333862  0.87102180  0.46998735    -0.80900
O1510       O  0.61691629  0.81032344  0.01499352    -0.74400
Al1511     Al  0.62881165  0.88576467  0.00346085     1.90100
O1512       O  0.61752728  0.81700125  0.48090113    -0.73500
O1513       O  0.67273481  0.79764134  0.02592309    -0.73300
O1514       O  0.67224252  0.81141257  0.45937001    -0.79000
O1515       O  0.70916140  0.83609986  0.03041840    -0.77200
O1516       O  0.66009867  0.85744330  0.00016662    -1.13300
O1517       O  0.68851840  0.89622554  0.04357129    -0.72500
C1518       C  0.66853488  0.91753934  0.04970700     0.98200
C1519       C  0.60450323  0.84022656  0.46717115     0.94600
Al1520     Al  0.65329768  0.81325559  0.99103458     1.55600
O1521       O  0.65171154  0.92240818  0.48097640    -0.77200
C1522       C  0.69661703  0.80796980  0.03799978     0.98700
C1523       C  0.60314447  0.82979938  0.03391793     0.93600
O1524       O  0.61101558  0.86098025  0.03718464    -0.82500
C1525       C  0.51507117  0.71839969  0.14759661     0.86400
C1526       C  0.49356903  0.74359025  0.16416048    -0.53900
C1527       C  0.47600791  0.76119883  0.14448329     0.09300
C1528       C  0.48169052  0.75232834  0.11021694     0.20200
C1529       C  0.49434166  0.69530436  0.12788136    -0.54600
C1530       C  0.47697095  0.71328122  0.10853076     0.09400
C1531       C  0.53266003  0.74027844  0.12411094    -0.54100
C1532       C  0.51545598  0.75835228  0.10508408     0.09900
H1533       H  0.49195273  0.74659325  0.18917235     0.14500
H1534       H  0.46768963  0.76673359  0.09416826     0.00200
H1535       H  0.49194566  0.66776257  0.12984970     0.14800
H1536       H  0.55699959  0.74216343  0.12312930     0.14600
C1537       C  0.54260709  0.81295109  0.09489983    -0.13500
C1538       C  0.52982215  0.78234603  0.08333570     0.08700
C1539       C  0.53872951  0.76996935  0.05415202    -0.13500
C1540       C  0.56192007  0.78643990  0.03773237    -0.13500
C1541       C  0.57651268  0.81555593  0.05029789     0.08700
C1542       C  0.56572482  0.82973383  0.07829043    -0.13500
H1543       H  0.53632457  0.82226311  0.11784763     0.12700
H1544       H  0.52951657  0.74599990  0.04529434     0.12700
H1545       H  0.56929556  0.77548873  0.01572399     0.12700
H1546       H  0.57635488  0.85237141  0.08818826     0.12700
C1547       C  0.67267199  0.94304434  0.07552723    -0.16600
C1548       C  0.69833433  0.94485250  0.09153335    -0.31700
H1549       H  0.65558736  0.96207046  0.07963860     0.12500
H1550       H  0.71552201  0.92626943  0.08607169     0.13000
C1551       C  0.56541287  0.65295742  0.18630388    -0.13500
C1552       C  0.58487346  0.67529218  0.20209048     0.08700
C1553       C  0.57946720  0.71053005  0.20230669    -0.13500
C1554       C  0.55561809  0.72342216  0.18638889    -0.13500
C1555       C  0.53682911  0.70162821  0.16902782     0.08700
C1556       C  0.54175599  0.66600757  0.16954027    -0.13500
H1557       H  0.56903726  0.62561040  0.18620135     0.12700
H1558       H  0.59371801  0.72825937  0.21498307     0.12700
H1559       H  0.55257692  0.75089181  0.18648861     0.12700
H1560       H  0.52826038  0.64807168  0.15647793     0.12700
C1561       C  0.67165616  0.54440059  0.19319404    -0.16600
C1562       C  0.68716563  0.55099999  0.16663296    -0.31700
H1563       H  0.66696896  0.51811752  0.19995260     0.12500
H1564       H  0.69145586  0.57784838  0.16131297     0.13000
C1565       C  0.67875971  0.53975646  0.34402054    -0.16600
C1566       C  0.69298347  0.56300909  0.32572678    -0.31700
H1567       H  0.65469275  0.53553544  0.34325856     0.12500
H1568       H  0.71710007  0.56596071  0.32821507     0.13000
C1569       C  0.70680774  0.95338512  0.42516847    -0.16600
C1570       C  0.68046505  0.94984108  0.44086928    -0.31700
H1571       H  0.72534776  0.93740351  0.43124070     0.12500
H1572       H  0.66208747  0.96662010  0.43616110     0.13000
C1573       C  0.53415741  0.68607803  0.32713898    -0.13500
C1574       C  0.53902652  0.71577425  0.34510786     0.08700
C1575       C  0.56845551  0.72601877  0.35184898    -0.13500
C1576       C  0.59277646  0.70821382  0.33895803    -0.13500
C1577       C  0.58801577  0.67912814  0.32010719     0.08700
C1578       C  0.55850637  0.66758805  0.31507428    -0.13500
H1579       H  0.51156960  0.67788291  0.32165715     0.12700
H1580       H  0.57260218  0.74898395  0.36555912     0.12700
H1581       H  0.61530863  0.71800997  0.34253121     0.12700
H1582       H  0.55430337  0.64582348  0.29987140     0.12700
C1583       C  0.53851091  0.78697294  0.44141874    -0.13500
C1584       C  0.53270865  0.80084441  0.41259016     0.08700
C1585       C  0.54938465  0.83000410  0.40260780    -0.13500
C1586       C  0.57192504  0.84443458  0.42091269    -0.13500
C1587       C  0.57827242  0.82963183  0.44922937     0.08700
C1588       C  0.56100662  0.80122658  0.45953941    -0.13500
H1589       H  0.52580638  0.76497580  0.44991074     0.12700
H1590       H  0.54581372  0.84093818  0.38014124     0.12700
H1591       H  0.58522417  0.86597103  0.41235642     0.12700
H1592       H  0.56536963  0.78952452  0.48154499     0.12700
C1593       C  0.41353473  0.67155830  0.41589602    -0.13500
C1594       C  0.41134071  0.67855232  0.44772875     0.08700
C1595       C  0.43280193  0.70059448  0.46131475    -0.13500
C1596       C  0.45461840  0.71755598  0.44302364    -0.13500
C1597       C  0.45490388  0.71318488  0.41082957     0.08700
C1598       C  0.43497886  0.68907929  0.39751750    -0.13500
H1599       H  0.39721729  0.65480542  0.40494426     0.12700
H1600       H  0.43161031  0.70614539  0.48595851     0.12700
H1601       H  0.46954180  0.73618499  0.45369764     0.12700
H1602       H  0.43480317  0.68548803  0.37261275     0.12700
C1603       C  0.39886605  0.68805797  0.08619565    -0.13500
C1604       C  0.40364771  0.67643461  0.05571058     0.08700
C1605       C  0.43304298  0.67421020  0.04348859    -0.13500
C1606       C  0.45730009  0.68517345  0.06107635    -0.13500
C1607       C  0.45235897  0.69749616  0.09126802     0.08700
C1608       C  0.42322847  0.69775984  0.10412121    -0.13500
H1609       H  0.37637923  0.68955781  0.09606764     0.12700
H1610       H  0.43709918  0.66540208  0.01988771     0.12700
H1611       H  0.47973455  0.68492699  0.05092944     0.12700
H1612       H  0.41933534  0.70619658  0.12782144     0.12700
C1613       C  0.30736030  0.54470849  0.41425291    -0.16600
C1614       C  0.29468154  0.57081533  0.42951768    -0.31700
H1615       H  0.33111568  0.53983553  0.41591769     0.12500
H1616       H  0.27096651  0.57509536  0.42620500     0.13000
C1617       C  0.31641012  0.55645619  0.06476205    -0.16600
C1618       C  0.29899372  0.56353396  0.08985317    -0.31700
H1619       H  0.32419260  0.53062252  0.06043727     0.12500
H1620       H  0.29197438  0.58984120  0.09349408     0.13000
C1621       C  0.45819962  0.80900478  0.17871837    -0.13500
C1622       C  0.45233142  0.78475151  0.15538767     0.08700
C1623       C  0.42324335  0.78175304  0.14380578    -0.13500
C1624       C  0.39967483  0.79975298  0.15788172    -0.13500
C1625       C  0.40536635  0.82274190  0.18229522     0.08700
C1626       C  0.43502291  0.82847637  0.19150605    -0.13500
H1627       H  0.48058927  0.81233836  0.18748983     0.12700
H1628       H  0.41837945  0.76434778  0.12491888     0.12700
H1629       H  0.37701463  0.79519224  0.15022954     0.12700
H1630       H  0.43999580  0.84634526  0.21015019     0.12700
C1631       C  0.41507859  0.84397985  0.32886774    -0.13500
C1632       C  0.41366553  0.83903929  0.29690839     0.08700
C1633       C  0.43448680  0.81786581  0.28159555    -0.13500
C1634       C  0.45561770  0.80034545  0.29807451    -0.13500
C1635       C  0.45594097  0.80317281  0.33048150     0.08700
C1636       C  0.43597832  0.82606161  0.34553495    -0.13500
H1637       H  0.39871667  0.85955778  0.34111445     0.12700
H1638       H  0.43315523  0.81317879  0.25692256     0.12700
H1639       H  0.47021335  0.78333801  0.28525296     0.12700
H1640       H  0.43564319  0.82876284  0.37052758     0.12700
C1641       C  0.29002093  0.94911100  0.32783119    -0.16600
C1642       C  0.31395150  0.95272150  0.30853974    -0.31700
H1643       H  0.27342635  0.92901178  0.32346476     0.12500
H1644       H  0.33035545  0.97320726  0.31209978     0.13000
C1645       C  0.31823375  0.95009216  0.17081373    -0.16600
C1646       C  0.29072355  0.95765852  0.16108190    -0.31700
H1647       H  0.33796778  0.96275107  0.16079611     0.12500
H1648       H  0.27154935  0.94406192  0.17135742     0.13000
C1649       C  0.24852624  0.80079925  0.16755077    -0.16600
C1650       C  0.26546808  0.79286636  0.19135858    -0.31700
H1651       H  0.24954106  0.82632366  0.15784817     0.12500
H1652       H  0.26582291  0.76637914  0.19881055     0.13000
C1653       C  0.25843471  0.72671019  0.08346819    -0.16600
C1654       C  0.27079577  0.69592373  0.07961726    -0.31700
H1655       H  0.26191110  0.74609813  0.06586379     0.12500
H1656       H  0.26770513  0.67665599  0.09731033     0.13000
C1657       C  0.28092612  0.72127536  0.43374115    -0.16600
C1658       C  0.25869319  0.70780150  0.41643612    -0.31700
H1659       H  0.29133713  0.74573011  0.42783357     0.12500
H1660       H  0.25025263  0.68214288  0.42161182     0.13000
C1661       C  0.27708599  0.79268852  0.33746533    -0.16600
C1662       C  0.26927355  0.81435051  0.31521511    -0.31700
H1663       H  0.30040934  0.78774476  0.34185642     0.12500
H1664       H  0.24554366  0.81916696  0.31265376     0.13000
C1665       C  0.22432043  0.56580826  0.32546654    -0.16600
C1666       C  0.22714887  0.53259095  0.33289001    -0.31700
H1667       H  0.23675301  0.58567530  0.33761716     0.12500
H1668       H  0.21415024  0.51319286  0.32061581     0.13000
C1669       C  0.22369267  0.56097136  0.19066456    -0.16600
C1670       C  0.21948911  0.53431458  0.17146061    -0.31700
H1671       H  0.24386757  0.57678071  0.18784925     0.12500
H1672       H  0.20065218  0.51669293  0.17518388     0.13000
C1673       C  0.06905054  0.58219057  0.17674190    -0.13500
C1674       C  0.07994118  0.56346119  0.20127962     0.08700
C1675       C  0.06648341  0.53140213  0.20820151    -0.13500
C1676       C  0.04242229  0.51852071  0.19105928    -0.13500
C1677       C  0.03139841  0.53730644  0.16648702     0.08700
C1678       C  0.04536276  0.56912240  0.15933218    -0.13500
H1679       H  0.07910804  0.60677754  0.17075996     0.12700
H1680       H  0.07418711  0.51655361  0.22734095     0.12700
H1681       H  0.03454518  0.99810460  0.19274271     0.12700
H1682       H  0.03845908  0.58387986  0.13984038     0.12700
C1683       C  0.16538362  0.69667943  0.19223443    -0.16600
C1684       C  0.18469336  0.69281895  0.16806868    -0.31700
H1685       H  0.15470930  0.72109535  0.19646751     0.12500
H1686       H  0.19406119  0.66758344  0.16411895     0.13000
C1687       C  0.16723719  0.69237443  0.32828014    -0.16600
C1688       C  0.18987187  0.71536484  0.32441204    -0.31700
H1689       H  0.15763195  0.68688368  0.35104987     0.12500
H1690       H  0.19699504  0.72043820  0.30060612     0.13000
C1691       C  0.23542481  0.95893023  0.05139313    -0.16600
C1692       C  0.22692855  0.97178857  0.07902464    -0.31700
H1693       H  0.25861042  0.96151280  0.04332539     0.12500
H1694       H  0.20470616  0.96628905  0.08877257     0.13000
C1695       C  0.22630644  0.95483950  0.41256073    -0.16600
C1696       C  0.21086787  0.96449510  0.43827341    -0.31700
H1697       H  0.22649889  0.92809266  0.40535328     0.12500
H1698       H  0.20913623  0.99159311  0.44397368     0.13000
C1699       C  0.07108213  0.91452091  0.08021579    -0.13500
C1700       C  0.09475685  0.93376017  0.06656294     0.08700
C1701       C  0.09304277  0.96979123  0.06689830    -0.13500
C1702       C  0.06741758  0.98602325  0.07798823    -0.13500
C1703       C  0.04311026  0.96680073  0.08976561     0.08700
C1704       C  0.04547171  0.93107750  0.09211997    -0.13500
H1705       H  0.07164174  0.88680872  0.08013568     0.12700
H1706       H  0.11095553  0.98555587  0.05692425     0.12700
H1707       H  0.06633306  0.01368540  0.07688138     0.12700
H1708       H  0.02699898  0.91597232  0.10181921     0.12700
C1709       C  0.17776430  0.80256202  0.42858108    -0.16600
C1710       C  0.20391443  0.80249262  0.41233808    -0.31700
H1711       H  0.16099057  0.78246093  0.42506010     0.12500
H1712       H  0.22138062  0.82114519  0.41799241     0.13000
C1713       C  0.19175987  0.81945580  0.07983239    -0.16600
C1714       C  0.17826049  0.79022038  0.08943600    -0.31700
H1715       H  0.21093889  0.82978783  0.09195547     0.12500
H1716       H  0.15817921  0.78061298  0.07831590     0.13000
C1717       C  0.06919380  0.52821528  0.36693730    -0.13500
C1718       C  0.04122260  0.51876366  0.35443337     0.08700
C1719       C  0.03401353  0.53140900  0.32535665    -0.13500
C1720       C  0.05495015  0.55135447  0.30854339    -0.13500
C1721       C  0.08354246  0.55822366  0.32027545     0.08700
C1722       C  0.09038287  0.54698341  0.34970001    -0.13500
H1723       H  0.07516693  0.52071727  0.38993982     0.12700
H1724       H  0.01284541  0.52479016  0.31498743     0.12700
H1725       H  0.04945319  0.55980033  0.28561720     0.12700
H1726       H  0.11219565  0.55249783  0.35921536     0.12700
C1727       C  0.03714161  0.95250764  0.46342762    -0.13500
C1728       C  0.02743951  0.93700223  0.43573752     0.08700
C1729       C  0.04210711  0.90742048  0.42469554    -0.13500
C1730       C  0.06740350  0.89574577  0.43925979    -0.13500
C1731       C  0.07856771  0.91365187  0.46488988     0.08700
C1732       C  0.06241063  0.94095012  0.47778761    -0.13500
H1733       H  0.02733823  0.97577277  0.47247807     0.12700
H1734       H  0.03602307  0.89545449  0.40294549     0.12700
H1735       H  0.07935012  0.87423692  0.42925381     0.12700
H1736       H  0.07014435  0.95451414  0.49821422     0.12700
C1737       C  0.93853043  0.58139673  0.04033963    -0.13500
C1738       C  0.91186480  0.59113257  0.05567624     0.08700
C1739       C  0.90750869  0.58332580  0.08699180    -0.13500
C1740       C  0.92864088  0.56444555  0.10228484    -0.13500
C1741       C  0.95391932  0.55128061  0.08625469     0.08700
C1742       C  0.95931607  0.56136352  0.05538217    -0.13500
H1743       H  0.94209310  0.58681375  0.01596842     0.12700
H1744       H  0.88695223  0.59025893  0.09916482     0.12700
H1745       H  0.92422830  0.55814661  0.12634465     0.12700
H1746       H  0.97890258  0.55319230  0.04237175     0.12700
C1747       C  0.89807484  0.53517459  0.41796857    -0.13500
C1748       C  0.90474560  0.56656799  0.43276979     0.08700
C1749       C  0.93484007  0.57790681  0.43405492    -0.13500
C1750       C  0.95787308  0.55702510  0.42293218    -0.13500
C1751       C  0.95106920  0.52481978  0.41010820     0.08700
C1752       C  0.92112480  0.51437534  0.40689126    -0.13500
H1753       H  0.87518763  0.52562887  0.41679631     0.12700
H1754       H  0.94073782  0.60186144  0.44549593     0.12700
H1755       H  0.98098042  0.56528172  0.42557846     0.12700
H1756       H  0.91563040  0.48928182  0.39743075     0.12700
C1757       C  0.76065417  0.53484467  0.42368269    -0.16600
C1758       C  0.76254049  0.56834938  0.43165828    -0.31700
H1759       H  0.77493704  0.51685593  0.43493302     0.12500
H1760       H  0.74861535  0.58687167  0.42079284     0.13000
C1761       C  0.77357661  0.56509030  0.07802932    -0.16600
C1762       C  0.76744127  0.53205062  0.08400727    -0.31700
H1763       H  0.76407141  0.58521059  0.09243897     0.12500
H1764       H  0.77725225  0.51227207  0.06926534     0.13000
C1765       C  0.92610179  0.95568807  0.20414846    -0.13500
C1766       C  0.90905138  0.92790427  0.19258539     0.08700
C1767       C  0.91674782  0.91367824  0.16355160    -0.13500
C1768       C  0.93962198  0.92896189  0.14532252    -0.13500
C1769       C  0.95565469  0.95772152  0.15647873     0.08700
C1770       C  0.94937831  0.97027221  0.18634643    -0.13500
H1771       H  0.92092768  0.96667975  0.22677923     0.12700
H1772       H  0.90404628  0.89210662  0.15434350     0.12700
H1773       H  0.94374446  0.91957784  0.12192220     0.12700
H1774       H  0.96866339  0.46851070  0.19785998     0.12700
C1775       C  0.90898185  0.95959285  0.32243800    -0.13500
C1776       C  0.90737974  0.92548698  0.31188658     0.08700
C1777       C  0.93057250  0.90326456  0.31876684    -0.13500
C1778       C  0.95476087  0.91485488  0.33614473    -0.13500
C1779       C  0.95636059  0.94897247  0.34682997     0.08700
C1780       C  0.93328497  0.97125962  0.33960780    -0.13500
H1781       H  0.89165216  0.97742367  0.31703377     0.12700
H1782       H  0.93006235  0.87691074  0.31062754     0.12700
H1783       H  0.97228912  0.89711281  0.34106481     0.12700
H1784       H  0.93106520  0.49158219  0.34264220     0.12700
C1785       C  0.76563576  0.93482023  0.32504805    -0.16600
C1786       C  0.77310376  0.96301598  0.34174503    -0.31700
H1787       H  0.74336259  0.92345738  0.32814736     0.12500
H1788       H  0.79557344  0.97404317  0.33972319     0.13000
C1789       C  0.76228235  0.94976128  0.19882139    -0.16600
C1790       C  0.76767356  0.96161741  0.17011297    -0.31700
H1791       H  0.74002544  0.95231376  0.20924543     0.12500
H1792       H  0.78871019  0.95610506  0.15807974     0.13000
C1793       C  0.72342472  0.72105390  0.33722107    -0.16600
C1794       C  0.73121270  0.69828289  0.31486201    -0.31700
H1795       H  0.70203812  0.73375084  0.33679619     0.12500
H1796       H  0.75350797  0.68760962  0.31481686     0.13000
C1797       C  0.74313111  0.79596476  0.42595382    -0.16600
C1798       C  0.71386134  0.80247497  0.42614468    -0.31700
H1799       H  0.75642217  0.80501542  0.44526956     0.12500
H1800       H  0.69981535  0.79057883  0.40868734     0.13000
C1801       C  0.79404158  0.79403105  0.33080235    -0.16600
C1802       C  0.82138278  0.79910344  0.31763119    -0.31700
H1803       H  0.77527019  0.80768161  0.32172277     0.12500
H1804       H  0.84095957  0.78733037  0.32692984     0.13000
C1805       C  0.80785458  0.69570622  0.40702894    -0.16600
C1806       C  0.82824695  0.70318969  0.42850184    -0.31700
H1807       H  0.80011562  0.66920023  0.40472758     0.12500
H1808       H  0.83618916  0.72940822  0.43189838     0.13000
C1809       C  0.72795011  0.79583033  0.08266885    -0.16600
C1810       C  0.71090916  0.78491858  0.05935683    -0.31700
H1811       H  0.72925631  0.82280055  0.08908133     0.12500
H1812       H  0.70806532  0.75755777  0.05501965     0.13000
C1813       C  0.72511687  0.72180361  0.16928963    -0.16600
C1814       C  0.72087445  0.68880385  0.17722890    -0.31700
H1815       H  0.71499320  0.74178150  0.18354591     0.12500
H1816       H  0.73050628  0.66862409  0.16302349     0.13000
C1817       C  0.79276312  0.80415195  0.16101403    -0.16600
C1818       C  0.81675064  0.80336794  0.17911071    -0.31700
H1819       H  0.77630700  0.82383020  0.16555513     0.12500
H1820       H  0.83316422  0.78345310  0.17561584     0.13000
C1821       C  0.80188269  0.70139097  0.08309332    -0.16600
C1822       C  0.81658313  0.70830154  0.05616989    -0.31700
H1823       H  0.79779529  0.67453436  0.08849089     0.12500
H1824       H  0.82120820  0.73462437  0.04948669     0.13000
C1825       C  0.79171773  0.72627240  0.60536630     0.86400
C1826       C  0.77432392  0.74873640  0.58354841    -0.53900
C1827       C  0.75560790  0.77124504  0.59828829     0.09300
C1828       C  0.75571150  0.76873205  0.63374635     0.20200
C1829       C  0.80795628  0.75161989  0.62731862    -0.54600
C1830       C  0.78876718  0.77397914  0.64224118     0.09400
C1831       C  0.76760914  0.70894082  0.62590778    -0.54100
C1832       C  0.74862975  0.73089028  0.64096979     0.03900
H1833       H  0.77719951  0.74735632  0.55853179     0.14500
H1834       H  0.74020046  0.78673354  0.64577065     0.00200
H1835       H  0.83194374  0.75163813  0.63065956     0.14800
H1836       H  0.76708190  0.68149100  0.62934735     0.14600
C1837       C  0.78926138  0.72908370  0.88917209     0.86400
C1838       C  0.76881907  0.70900163  0.86657604    -0.53900
C1839       C  0.74957772  0.72926545  0.85119624     0.09300
C1840       C  0.75266933  0.76735732  0.85962454     0.20200
C1841       C  0.80540657  0.75581813  0.86883867    -0.54600
C1842       C  0.78613839  0.77560384  0.85287982     0.09400
C1843       C  0.76797151  0.74976792  0.91029589    -0.54100
C1844       C  0.74872640  0.76956559  0.89496823     0.09900
H1845       H  0.76957144  0.68142739  0.86314087     0.14500
H1846       H  0.73703384  0.78370436  0.84707646     0.00200
H1847       H  0.82960818  0.75762202  0.86647303     0.14800
H1848       H  0.76757055  0.74807515  0.93539981     0.14600
O1849       O  0.85383632  0.84049591  0.78522327    -0.81900
C1850       C  0.78868778  0.93312372  0.71415666     0.97400
O1851       O  0.77890365  0.90744503  0.72880356    -0.71100
O1852       O  0.80537243  0.85061700  0.71142188    -0.74600
Al1853     Al  0.79747805  0.87177763  0.75029392     1.49000
C1854       C  0.82621978  0.83004353  0.70534554     0.92700
O1855       O  0.88293316  0.88716503  0.71363244    -0.80900
O1856       O  0.86055984  0.93505524  0.79059387    -0.74400
Al1857     Al  0.86620856  0.86485546  0.74921108     1.90100
O1858       O  0.87363184  0.93975819  0.72928234    -0.73500
O1859       O  0.80327597  0.94285822  0.78170467    -0.73300
O1860       O  0.81518421  0.94418472  0.71770158    -0.79000
O1861       O  0.78540906  0.89071786  0.78910162    -0.77200
O1862       O  0.83389164  0.89121368  0.75121336    -1.13300
O1863       O  0.80723916  0.83191857  0.77216000    -0.72500
C1864       C  0.82851376  0.82659674  0.78996761     0.98200
C1865       C  0.88925733  0.91884617  0.71353916     0.94600
Al1866     Al  0.83773325  0.93662542  0.75433592     1.55600
O1867       O  0.84951237  0.83046407  0.72143882    -0.77200
C1868       C  0.78648123  0.92198326  0.79659230     0.98700
C1869       C  0.88457294  0.91897118  0.79290446     0.93600
O1870       O  0.88979047  0.89306606  0.77596297    -0.82500
O1871       O  0.83479026  0.66935421  0.96148342    -0.81900
C1872       C  0.78764782  0.57745906  0.53913627     0.97400
O1873       O  0.77847953  0.60231434  0.52383554    -0.71100
O1874       O  0.80745782  0.65951685  0.53418973    -0.74600
Al1875     Al  0.79169120  0.62224760  0.00085510     1.49000
C1876       C  0.82961776  0.67936773  0.53836534     0.92700
O1877       O  0.88231876  0.62017000  0.52979896    -0.80900
O1878       O  0.87383665  0.56873179  0.97912447    -0.74400
Al1879     Al  0.86688577  0.64104928  0.49399865     1.90100
O1880       O  0.87066863  0.56723448  0.51637947    -0.73500
O1881       O  0.81837748  0.55056964  0.97259600    -0.73300
O1882       O  0.81278166  0.56449167  0.53269571    -0.79000
O1883       O  0.77752335  0.58026531  0.98035775    -0.77200
O1884       O  0.82992833  0.61140831  0.99891512    -1.13300
O1885       O  0.79247084  0.64009318  0.96154052    -0.72500
C1886       C  0.80932691  0.66278393  0.95019587     0.98200
C1887       C  0.88700247  0.58839788  0.53094758     0.94600
Al1888     Al  0.83983436  0.56839879  0.00629391     1.55600
O1889       O  0.85259130  0.67774645  0.52078842    -0.77200
C1890       C  0.79160261  0.55633043  0.96642556     0.98700
C1891       C  0.88276014  0.58774261  0.95720936     0.93600
O1892       O  0.87363014  0.61802710  0.95518981    -0.82500
C1893       C  0.01628143  0.97069757  0.90906653     0.86400
C1894       C  0.99812749  0.00076379  0.92235545    -0.53900
C1895       C  0.98335110  0.52306792  0.90155861     0.09300
C1896       C  0.98936093  0.51014257  0.86827538     0.20200
C1897       C  0.99410712  0.95125333  0.88840253    -0.54600
C1898       C  0.98185065  0.97104681  0.86628364     0.09400
C1899       C  0.03921863  0.98677961  0.88699787    -0.54100
C1900       C  0.02363574  0.50810418  0.86463709     0.09900
H1901       H  0.99212092  0.50753838  0.94814311     0.14500
H1902       H  0.97908530  0.52595165  0.85036027     0.00200
H1903       H  0.98682654  0.92500122  0.89250598     0.14800
H1904       H  0.06318469  0.98331459  0.88921537     0.14600
O1905       O  0.14804809  0.83439142  0.97432513    -0.81900
C1906       C  0.21778503  0.92085220  0.54035051     0.97400
O1907       O  0.22258920  0.89297191  0.52658773    -0.71100
O1908       O  0.20240501  0.83162760  0.51474972    -0.74600
Al1909     Al  0.20391471  0.87383535  0.49183271     1.49000
C1910       C  0.18503098  0.82196029  0.53683408     0.92700
O1911       O  0.11333379  0.87643278  0.53778434    -0.80900
O1912       O  0.13575390  0.92637053  0.96537474    -0.74400
Al1913     Al  0.13819476  0.85363722  0.50690002     1.90100
O1914       O  0.14276579  0.91770147  0.55331316    -0.73500
O1915       O  0.19341690  0.94106311  0.96627242    -0.73300
O1916       O  0.19526202  0.93844407  0.53464307    -0.79000
O1917       O  0.21253542  0.89025671  0.95862633    -0.77200
O1918       O  0.16725044  0.88588312  0.50398289    -1.13300
O1919       O  0.19598090  0.83148438  0.98259431    -0.72500
C1920       C  0.17365736  0.82367857  0.96656385     0.98200
C1921       C  0.11818424  0.90172697  0.55552664     0.94600
Al1922     Al  0.15908836  0.92904055  0.51373401     1.55600
O1923       O  0.15825086  0.83184408  0.53903892    -0.77200
C1924       C  0.20948572  0.92078278  0.95028005     0.98700
C1925       C  0.11184695  0.90891421  0.96862407     0.93600
O1926       O  0.11006838  0.88356806  0.98628814    -0.82500
O1927       O  0.14909764  0.65427411  0.79990370    -0.81900
C1928       C  0.21158561  0.57626648  0.70873674     0.97400
O1929       O  0.22174539  0.60030791  0.72521770    -0.71100
O1930       O  0.19428513  0.65743399  0.72015904    -0.74600
Al1931     Al  0.20413873  0.63090386  0.75441079     1.49000
C1932       C  0.17340877  0.67858474  0.71941183     0.92700
O1933       O  0.11868171  0.62038418  0.72250866    -0.80900
O1934       O  0.14079606  0.56194558  0.79051285    -0.74400
Al1935     Al  0.13562053  0.63703420  0.76065217     1.90100
O1936       O  0.12938625  0.56607865  0.72932380    -0.73500
O1937       O  0.19839108  0.55554350  0.77841819    -0.73300
O1938       O  0.18675234  0.56203415  0.71549696    -0.79000
O1939       O  0.21808661  0.60633121  0.78831253    -0.77200
O1940       O  0.16800845  0.61081854  0.75607578    -1.13300
O1941       O  0.19498232  0.66647213  0.78361609    -0.72500
C1942       C  0.17470105  0.66748287  0.80444197     0.98200
C1943       C  0.11399130  0.58870222  0.71683189     0.94600
Al1944     Al  0.16428991  0.56530743  0.75354504     1.55600
O1945       O  0.15160254  0.67647678  0.73848648    -0.77200
C1946       C  0.21595435  0.57474387  0.79366620     0.98700
C1947       C  0.11618789  0.57668365  0.79502100     0.93600
O1948       O  0.11151941  0.60506156  0.78292282    -0.82500
C1949       C  0.20789790  0.73642442  0.85685558     0.86400
C1950       C  0.22945307  0.71644636  0.87735105    -0.53900
C1951       C  0.24935929  0.73722702  0.89303135     0.09300
C1952       C  0.24613807  0.77560947  0.88616692     0.20200
C1953       C  0.19308012  0.76205209  0.87933500    -0.54600
C1954       C  0.21306402  0.78196619  0.89545222     0.09400
C1955       C  0.22844615  0.75799937  0.83571197    -0.54100
C1956       C  0.24843107  0.77868858  0.85047837     0.09900
H1957       H  0.22865650  0.68892659  0.88028198     0.14500
H1958       H  0.26233712  0.79239443  0.89864017     0.00200
H1959       H  0.16901554  0.76259851  0.88325587     0.14800
H1960       H  0.22654077  0.75773219  0.81066460     0.14600
C1961       C  0.20484299  0.72976254  0.65031472     0.86400
C1962       C  0.22338860  0.75644239  0.66812459    -0.53900
C1963       C  0.23805718  0.77960080  0.64954902     0.09300
C1964       C  0.23254651  0.77447569  0.61497342     0.20200
C1965       C  0.18347147  0.75046413  0.63077888    -0.54600
C1966       C  0.19815991  0.77348942  0.61170407     0.09400
C1967       C  0.22724146  0.71437021  0.62670946    -0.54100
C1968       C  0.24154936  0.73777039  0.60804666     0.09900
H1969       H  0.22692063  0.75516660  0.69287533     0.14500
H1970       H  0.24476372  0.79366290  0.60040309     0.00200
H1971       H  0.15941003  0.74592254  0.63063623     0.14800
H1972       H  0.23170227  0.68716538  0.62546565     0.14600
C1973       C  0.98336781  0.52882955  0.59803568     0.86400
C1974       C  0.96355854  0.50853151  0.62064249    -0.53900
C1975       C  0.98336602  0.98445580  0.64580133     0.09300
C1976       C  0.01739819  0.99143739  0.64293218     0.20200
C1977       C  0.00421600  0.55081525  0.61844494    -0.54600
C1978       C  0.01996590  0.53260982  0.63930861     0.09400
C1979       C  0.00435973  0.50199820  0.58285895    -0.54100
C1980       C  0.02481069  0.98457587  0.60842793     0.09900
H1981       H  0.94287113  0.00069735  0.62567683     0.14500
H1982       H  0.03061977  0.97585797  0.65873496     0.00200
H1983       H  0.00645338  0.57833965  0.61615502     0.14800
H1984       H  0.01103204  0.00106593  0.56373995     0.14600
O1985       O  0.35207978  0.92312862  0.71199537    -0.81900
C1986       C  0.29581899  0.81667517  0.78248763     0.97400
O1987       O  0.28456662  0.84528468  0.77667975    -0.71100
O1988       O  0.30848947  0.90315940  0.78872688    -0.74600
Al1989     Al  0.29747150  0.88341238  0.75131003     1.49000
C1990       C  0.32882317  0.92457902  0.79406439     0.92700
O1991       O  0.38279215  0.87003271  0.77653037    -0.80900
O1992       O  0.36060518  0.83450069  0.69412248    -0.74400
Al1993     Al  0.36600624  0.89593290  0.74445817     1.90100
O1994       O  0.37503856  0.81959902  0.75407892    -0.73500
O1995       O  0.30430011  0.81873210  0.70741149    -0.73300
O1996       O  0.31844912  0.80626521  0.76736637    -0.79000
O1997       O  0.27913901  0.86542173  0.71603864    -0.77200
O1998       O  0.33387912  0.86744815  0.74242536    -1.13300
O1999       O  0.30438751  0.92458258  0.72682500    -0.72500
C2000       C  0.32600415  0.93440862  0.70896319     0.98200
C2001       C  0.38894797  0.83858865  0.77312966     0.94600
Al2002     Al  0.33902796  0.82361374  0.73163582     1.55600
O2003       O  0.35086882  0.92738566  0.77556951    -0.77200
C2004       C  0.28241637  0.83742142  0.70216597     0.98700
C2005       C  0.38595366  0.84915385  0.69508977     0.93600
O2006       O  0.39058719  0.87251886  0.71479002    -0.82500
O2007       O  0.33300742  0.59320184  0.53326745    -0.81900
C2008       C  0.27924962  0.69021855  0.96454226     0.97400
O2009       O  0.26768640  0.66917158  0.98377293    -0.71100
O2010       O  0.28514049  0.60922607  0.96793480    -0.74600
Al2011     Al  0.28664675  0.63937594  0.49505751     1.49000
C2012       C  0.30346855  0.58857991  0.95636194     0.92700
O2013       O  0.36614016  0.63981708  0.95575294    -0.80900
O2014       O  0.35411310  0.68251094  0.54462473    -0.74400
Al2015     Al  0.35255643  0.61746308  0.99264025     1.90100
O2016       O  0.36466858  0.69180173  0.97511354    -0.73500
O2017       O  0.30074251  0.70524381  0.53159684    -0.73300
O2018       O  0.30627821  0.70011945  0.96700679    -0.79000
O2019       O  0.27523498  0.65668143  0.53343882    -0.77200
O2020       O  0.32488200  0.64978839  0.50015017    -1.13300
O2021       O  0.28764266  0.59593019  0.51531414    -0.72500
C2022       C  0.30553303  0.58472060  0.53484940     0.98200
C2023       C  0.37615402  0.67021813  0.95664745     0.94600
Al2024     Al  0.33586092  0.69307168  0.50692684     1.55600
O2025       O  0.32972451  0.58646701  0.96643863    -0.77200
C2026       C  0.28027410  0.68634422  0.54351527     0.98700
C2027       C  0.37612458  0.66286535  0.54597079     0.93600
O2028       O  0.37868686  0.63779829  0.52728566    -0.82500
C2029       C  0.28793684  0.51823207  0.89602255     0.86400
C2030       C  0.26495107  0.49788388  0.91569938    -0.53900
C2031       C  0.24974010  0.98392186  0.89780464     0.09300
C2032       C  0.25699309  0.98310072  0.86288605     0.20200
C2033       C  0.30916116  0.99439190  0.87686372    -0.54600
C2034       C  0.29030769  0.97362628  0.86006684     0.09400
C2035       C  0.26958867  0.53735482  0.87230162    -0.54100
C2036       C  0.25090779  0.51677159  0.85523822     0.09900
H2037       H  0.26335772  0.49986825  0.94081657     0.14500
H2038       H  0.24171893  0.96603416  0.84950545     0.00200
H2039       H  0.33325750  0.99135904  0.87709689     0.14800
H2040       H  0.27160423  0.56487996  0.86978940     0.14600
C2041       C  0.28774122  0.52350149  0.60417989     0.86400
C2042       C  0.26436789  0.54388170  0.62335059    -0.53900
C2043       C  0.24545579  0.52390799  0.64123802     0.09300
C2044       C  0.25295399  0.98572336  0.63572963     0.20200
C2045       C  0.30496964  0.00538319  0.62767027    -0.54600
C2046       C  0.28583133  0.98492636  0.64556821     0.09400
C2047       C  0.26967578  0.49687317  0.58582223    -0.54100
C2048       C  0.25353354  0.97640504  0.60127078     0.09900
H2049       H  0.26345891  0.57165109  0.62322241     0.14500
H2050       H  0.23742153  0.96921084  0.64978568     0.00200
H2051       H  0.32879753  0.00821229  0.63150159     0.14800
H2052       H  0.27093876  0.49486899  0.56070224     0.14600
C2053       C  0.47766673  0.77203121  0.84523555     0.86400
C2054       C  0.45710747  0.74773468  0.86350240    -0.53900
C2055       C  0.47125775  0.72783604  0.88376739     0.09300
C2056       C  0.50545911  0.73406259  0.88429045     0.20200
C2057       C  0.49512797  0.79263126  0.86966053    -0.54600
C2058       C  0.51004984  0.77301867  0.88991017     0.09400
C2059       C  0.50159592  0.74894744  0.82990209    -0.54100
C2060       C  0.51600078  0.72889656  0.85041834     0.09900
H2061       H  0.43291149  0.74690857  0.86113809     0.14500
H2062       H  0.51704294  0.71783686  0.90098312     0.00200
H2063       H  0.49866967  0.82015799  0.86868056     0.14800
H2064       H  0.50764862  0.74961518  0.80540309     0.14600
C2065       C  0.70411307  0.51793666  0.85898336     0.86400
C2066       C  0.72756547  0.49778973  0.84039870    -0.53900
C2067       C  0.74805329  0.97881634  0.85709852     0.09300
C2068       C  0.74254389  0.98377026  0.89225957     0.20200
C2069       C  0.68945886  0.49144382  0.88099720    -0.54600
C2070       C  0.70967511  0.97231083  0.89814335     0.09400
C2071       C  0.72170996  0.54217762  0.88047753    -0.54100
C2072       C  0.74168302  0.52657923  0.89863057     0.09900
H2073       H  0.72815647  0.49641717  0.81522667     0.14500
H2074       H  0.75865221  0.96993795  0.90637483     0.00200
H2075       H  0.66545063  0.98393446  0.88122123     0.14800
H2076       H  0.71755895  0.56948808  0.88213867     0.14600
O2077       O  0.64447321  0.57755394  0.72201365    -0.81900
C2078       C  0.71531757  0.68016802  0.78209205     0.97400
O2079       O  0.72477267  0.65848089  0.76245298    -0.71100
O2080       O  0.70527016  0.59906883  0.77956892    -0.74600
Al2081     Al  0.70414221  0.62125150  0.74201199     1.49000
C2082       C  0.68650387  0.57992583  0.79334223     0.92700
O2083       O  0.62259627  0.62997286  0.79486573    -0.80900
O2084       O  0.63306628  0.67679573  0.71758249    -0.74400
Al2085     Al  0.63668865  0.60623993  0.75802924     1.90100
O2086       O  0.63084758  0.68217771  0.77892672    -0.73500
O2087       O  0.69126888  0.69220049  0.71711942    -0.73300
O2088       O  0.68859505  0.68990613  0.78156686    -0.79000
O2089       O  0.70676780  0.64164024  0.70277458    -0.77200
O2090       O  0.66717971  0.63601523  0.74969026    -1.13300
O2091       O  0.69329743  0.58092975  0.72049631    -0.72500
C2092       C  0.66933165  0.56794142  0.71088855     0.98200
C2093       C  0.61763095  0.66167050  0.79693068     0.94600
Al2094     Al  0.66152921  0.68122355  0.74889675     1.55600
O2095       O  0.65952181  0.57754382  0.78498666    -0.77200
C2096       C  0.70439079  0.67298910  0.69763241     0.98700
C2097       C  0.60988894  0.65759219  0.71842796     0.93600
O2098       O  0.60871118  0.63010722  0.73370024    -0.82500
C2099       C  0.70885367  0.52430182  0.64292473     0.86400
C2100       C  0.73007047  0.54314308  0.61990332    -0.53900
C2101       C  0.74989355  0.52260090  0.60419391     0.09300
C2102       C  0.74762557  0.98604586  0.61646965     0.20200
C2103       C  0.69359508  0.49598126  0.62332568    -0.54600
C2104       C  0.71448047  0.97664156  0.61026624     0.09400
C2105       C  0.72977236  0.50550414  0.66414844    -0.54100
C2106       C  0.75054947  0.98536135  0.65188743     0.09900
H2107       H  0.72948821  0.57064429  0.61681473     0.14500
H2108       H  0.76393083  0.96950255  0.60382536     0.00200
H2109       H  0.67031080  0.99483740  0.62429849     0.14800
H2110       H  0.72940549  0.50926288  0.68911885     0.14600
O2111       O  0.64768289  0.90841390  0.54386687    -0.81900
C2112       C  0.70958740  0.82499248  0.95647956     0.97400
O2113       O  0.71390765  0.85385122  0.96879440    -0.71100
O2114       O  0.69143782  0.91350165  0.98062331    -0.74600
Al2115     Al  0.70118198  0.87210989  0.50279793     1.49000
C2116       C  0.66975961  0.92276363  0.96434324     0.92700
O2117       O  0.60315632  0.86097671  0.97499555    -0.80900
O2118       O  0.63599729  0.81298241  0.53905242    -0.74400
Al2119     Al  0.63285866  0.88770052  0.50677623     1.90100
O2120       O  0.63304706  0.82298886  0.95462800    -0.73500
O2121       O  0.68997022  0.79720517  0.51753270    -0.73300
O2122       O  0.68774822  0.80633890  0.96502678    -0.79000
O2123       O  0.71126438  0.84327202  0.53655260    -0.77200
O2124       O  0.66292346  0.85821240  0.50306830    -1.13300
O2125       O  0.69599329  0.90776439  0.53341383    -0.72500
C2126       C  0.67408867  0.91785680  0.55003600     0.98200
C2127       C  0.60793264  0.83690549  0.95576918     0.94600
Al2128     Al  0.65471142  0.81365032  0.49955099     1.55600
O2129       O  0.64333875  0.91195873  0.96970263    -0.77200
C2130       C  0.70829934  0.81113372  0.53551259     0.98700
C2131       C  0.61194890  0.82877375  0.54468587     0.93600
O2132       O  0.60768404  0.85785232  0.53280914    -0.82500
C2133       C  0.51260732  0.71631448  0.65560106     0.86400
C2134       C  0.49389056  0.74604303  0.66914389    -0.53900
C2135       C  0.47981932  0.76484351  0.64727761     0.09300
C2136       C  0.48590869  0.75189473  0.61394180     0.20200
C2137       C  0.49021967  0.69511452  0.63657985    -0.54600
C2138       C  0.47611059  0.71364838  0.61498865     0.09400
C2139       C  0.53377778  0.73298971  0.63193849    -0.54100
C2140       C  0.52038807  0.75186418  0.61034078     0.09900
H2141       H  0.49101260  0.75065557  0.69386157     0.14500
H2142       H  0.47493830  0.76672334  0.59582263     0.00200
H2143       H  0.48420875  0.66854827  0.64111414     0.14800
H2144       H  0.55800457  0.73112944  0.63304909     0.14600
C2145       C  0.53826515  0.80782579  0.58761400    -0.13500
C2146       C  0.53950629  0.77191410  0.58846048     0.08700
C2147       C  0.56385453  0.75546261  0.57406633    -0.13500
C2148       C  0.58748386  0.77432426  0.56094490    -0.13500
C2149       C  0.58718707  0.81027844  0.56109305     0.08700
C2150       C  0.56188771  0.82695157  0.57364401    -0.13500
H2151       H  0.51993405  0.82104349  0.59912533     0.12700
H2152       H  0.56533858  0.72780101  0.57450704     0.12700
H2153       H  0.60604440  0.76053054  0.55049041     0.12700
H2154       H  0.56076257  0.85462256  0.57334148     0.12700
C2155       C  0.67920288  0.94179049  0.57664815    -0.16600
C2156       C  0.70700618  0.95017899  0.58612139    -0.31700
H2157       H  0.65977442  0.95312240  0.58797351     0.12500
H2158       H  0.72595575  0.93799121  0.57457285     0.13000
C2159       C  0.56482503  0.64931611  0.68566268    -0.13500
C2160       C  0.58256573  0.67001859  0.70478870     0.08700
C2161       C  0.57360137  0.70330932  0.71231286    -0.13500
C2162       C  0.54820341  0.71664338  0.69940618    -0.13500
C2163       C  0.53128038  0.69714294  0.67825580     0.08700
C2164       C  0.53972165  0.66297992  0.67194233    -0.13500
H2165       H  0.57134112  0.62336129  0.67998235     0.12700
H2166       H  0.58673986  0.71935917  0.72773168     0.12700
H2167       H  0.54332045  0.74329883  0.70400991     0.12700
H2168       H  0.52839554  0.64741526  0.65482106     0.12700
C2169       C  0.67193593  0.54158142  0.68598651    -0.16600
C2170       C  0.68901465  0.54944727  0.66074352    -0.31700
H2171       H  0.66685665  0.51503800  0.69158580     0.12500
H2172       H  0.69324625  0.57652772  0.65635143     0.13000
C2173       C  0.68443796  0.53732841  0.83730012    -0.16600
C2174       C  0.69859643  0.56018951  0.81865973    -0.31700
H2175       H  0.66054185  0.53205951  0.83596743     0.12500
H2176       H  0.72258272  0.56422749  0.82147208     0.13000
C2177       C  0.70220265  0.94856713  0.92387488    -0.16600
C2178       C  0.67518827  0.94613471  0.93811379    -0.31700
H2179       H  0.72050795  0.93389804  0.93265442     0.12500
H2180       H  0.65644938  0.96029841  0.92973395     0.13000
C2181       C  0.54284634  0.67412132  0.83822546    -0.13500
C2182       C  0.54322032  0.70995800  0.84152519     0.08700
C2183       C  0.56968148  0.72848331  0.83499410    -0.13500
C2184       C  0.59503353  0.71178053  0.82371020    -0.13500
C2185       C  0.59431281  0.67618265  0.81796881     0.08700
C2186       C  0.56827620  0.65725844  0.82631461    -0.13500
H2187       H  0.52249424  0.65949751  0.84333963     0.12700
H2188       H  0.57040022  0.75611960  0.83771098     0.12700
H2189       H  0.61471161  0.72714398  0.81753105     0.12700
H2190       H  0.56688690  0.62996431  0.82165004     0.12700
C2191       C  0.56204246  0.77256457  0.90996869    -0.13500
C2192       C  0.53419234  0.78839536  0.90896753     0.08700
C2193       C  0.53083112  0.82081950  0.92310737    -0.13500
C2194       C  0.55498294  0.83722047  0.93757291    -0.13500
C2195       C  0.58310607  0.82176810  0.93773077     0.08700
C2196       C  0.58627945  0.78917128  0.92389454    -0.13500
H2197       H  0.56544309  0.74773658  0.89920283     0.12700
H2198       H  0.50952134  0.83354584  0.92282533     0.12700
H2199       H  0.55162484  0.86190508  0.94871842     0.12700
H2200       H  0.60742758  0.77611321  0.92430165     0.12700
C2201       C  0.40986145  0.66697987  0.90924443    -0.13500
C2202       C  0.40333565  0.68047627  0.93880739     0.08700
C2203       C  0.42331577  0.70451224  0.95201985    -0.13500
C2204       C  0.44820362  0.71681295  0.93513474    -0.13500
C2205       C  0.45322031  0.70569246  0.90460954     0.08700
C2206       C  0.43445960  0.67996198  0.89202382    -0.13500
H2207       H  0.39501939  0.64807245  0.89884401     0.12700
H2208       H  0.41915034  0.71460365  0.97518642     0.12700
H2209       H  0.46202240  0.73712440  0.94494678     0.12700
H2210       H  0.43773599  0.67164796  0.86817383     0.12700
C2211       C  0.39678160  0.69674508  0.59024302    -0.13500
C2212       C  0.40077859  0.67179143  0.56688674     0.08700
C2213       C  0.42965785  0.65914283  0.56078216    -0.13500
C2214       C  0.45428033  0.67273441  0.57647045    -0.13500
C2215       C  0.45032662  0.69905448  0.59843954     0.08700
C2216       C  0.42134957  0.70990360  0.60614681    -0.13500
H2217       H  0.37475951  0.70661572  0.59574812     0.12700
H2218       H  0.43344535  0.63995637  0.54284707     0.12700
H2219       H  0.47647137  0.66333353  0.57098161     0.12700
H2220       H  0.41765810  0.72827361  0.62468468     0.12700
C2221       C  0.30648395  0.54194160  0.91608707    -0.16600
C2222       C  0.29171150  0.56622520  0.93205445    -0.31700
H2223       H  0.33032328  0.53832576  0.91874866     0.12500
H2224       H  0.26786378  0.56882061  0.92820742     0.13000
C2225       C  0.29236306  0.56230466  0.55930718    -0.16600
C2226       C  0.30654619  0.54622102  0.58219257    -0.31700
H2227       H  0.26815940  0.55893333  0.55836144     0.12500
H2228       H  0.33068201  0.54845845  0.58423207     0.13000
C2229       C  0.46199574  0.81207843  0.68259221    -0.13500
C2230       C  0.45831535  0.79241467  0.65550333     0.08700
C2231       C  0.43248581  0.79712093  0.63807501    -0.13500
C2232       C  0.40903905  0.81724370  0.64979227    -0.13500
C2233       C  0.41194617  0.83468263  0.67813165     0.08700
C2234       C  0.43923456  0.83329139  0.69355625    -0.13500
H2235       H  0.48199423  0.81005702  0.69603558     0.12700
H2236       H  0.42940678  0.78369825  0.61635076     0.12700
H2237       H  0.38830999  0.81813248  0.63738298     0.12700
H2238       H  0.44210444  0.84641992  0.71556938     0.12700
C2239       C  0.42590250  0.84057320  0.81565539    -0.13500
C2240       C  0.41351353  0.82355349  0.79017200     0.08700
C2241       C  0.42480295  0.79160763  0.78077921    -0.13500
C2242       C  0.44723385  0.77636223  0.79730184    -0.13500
C2243       C  0.45924587  0.79277064  0.82346768     0.08700
C2244       C  0.44819667  0.82518286  0.83240206    -0.13500
H2245       H  0.41751777  0.86515172  0.82341371     0.12700
H2246       H  0.41586028  0.77795063  0.76096388     0.12700
H2247       H  0.45419849  0.75090118  0.79045319     0.12700
H2248       H  0.45528435  0.83811122  0.85328870     0.12700
C2249       C  0.29982886  0.94620498  0.83852438    -0.16600
C2250       C  0.32535081  0.94761688  0.82122117    -0.31700
H2251       H  0.28281941  0.92678259  0.83347440     0.12500
H2252       H  0.34194306  0.96787506  0.82488695     0.13000
C2253       C  0.32094576  0.95866960  0.68334866    -0.16600
C2254       C  0.29330786  0.96424096  0.67313013    -0.31700
H2255       H  0.34033562  0.96968251  0.67120649     0.12500
H2256       H  0.27447348  0.95172634  0.68508364     0.13000
C2257       C  0.26334310  0.80002022  0.66117067    -0.16600
C2258       C  0.25871178  0.82523543  0.68171206    -0.31700
H2259       H  0.28582237  0.79108602  0.65597895     0.12500
H2260       H  0.23618341  0.83458646  0.68593225     0.13000
C2261       C  0.26275362  0.72870451  0.58260394    -0.16600
C2262       C  0.26095085  0.69779890  0.56909900    -0.31700
H2263       H  0.27867276  0.74793456  0.57399619     0.12500
H2264       H  0.24368326  0.67951457  0.57650129     0.13000
C2265       C  0.26041364  0.70215129  0.93897151    -0.16600
C2266       C  0.26959396  0.72522961  0.91757225    -0.31700
H2267       H  0.23787909  0.69127314  0.93773638     0.12500
H2268       H  0.29132129  0.73790569  0.91968031     0.13000
C2269       C  0.26834232  0.80301956  0.83258121    -0.16600
C2270       C  0.28113984  0.79322703  0.80524460    -0.31700
H2271       H  0.27108208  0.82920474  0.84096762     0.12500
H2272       H  0.28034388  0.76625331  0.79870444     0.13000
C2273       C  0.23478635  0.56107428  0.81814282    -0.16600
C2274       C  0.23195120  0.52917961  0.82972194    -0.31700
H2275       H  0.25136986  0.57889307  0.82717001     0.12500
H2276       H  0.21555037  0.51141041  0.82007705     0.13000
C2277       C  0.22983975  0.56534154  0.68160559    -0.16600
C2278       C  0.22374297  0.53704788  0.66482906    -0.31700
H2279       H  0.25025061  0.58007727  0.67660523     0.12500
H2280       H  0.20454010  0.52087530  0.67117616     0.13000
C2281       C  0.07941163  0.59466440  0.67190518    -0.13500
C2282       C  0.08902775  0.57646989  0.69740289     0.08700
C2283       C  0.07467735  0.54510488  0.70469999    -0.13500
C2284       C  0.05177202  0.53167153  0.68654595    -0.13500
C2285       C  0.04289136  0.54877170  0.66002052     0.08700
C2286       C  0.05684466  0.58076815  0.65315165    -0.13500
H2287       H  0.09001649  0.61894720  0.66587675     0.12700
H2288       H  0.08109802  0.53089261  0.72477919     0.12700
H2289       H  0.04071954  0.00879025  0.70251069     0.12700
H2290       H  0.05111342  0.59483981  0.63284325     0.12700
C2291       C  0.17564289  0.70664894  0.69676053    -0.16600
C2292       C  0.19147539  0.70162581  0.67034753    -0.31700
H2293       H  0.16722601  0.73178962  0.70295663     0.12500
H2294       H  0.19838879  0.67560122  0.66496509     0.13000
C2295       C  0.18264374  0.68307573  0.83440209    -0.16600
C2296       C  0.18545794  0.71718350  0.83685873    -0.31700
H2297       H  0.19349123  0.66664134  0.85048317     0.12500
H2298       H  0.17404586  0.73250008  0.82008753     0.13000
C2299       C  0.23985078  0.93409227  0.56198871    -0.16600
C2300       C  0.23173373  0.95305476  0.58669880    -0.31700
H2301       H  0.26341551  0.93067800  0.55606090     0.12500
H2302       H  0.20833155  0.95460383  0.59401879     0.13000
C2303       C  0.22445846  0.96610353  0.91368957    -0.16600
C2304       C  0.22699110  0.93370695  0.92317163    -0.31700
H2305       H  0.20735601  0.98221978  0.92422639     0.12500
H2306       H  0.24499943  0.91809863  0.91370725     0.13000
C2307       C  0.06420574  0.91488464  0.56217553    -0.13500
C2308       C  0.09328609  0.91693407  0.57389811     0.08700
C2309       C  0.09898740  0.93949623  0.59877002    -0.13500
C2310       C  0.07629475  0.96044439  0.61090790    -0.13500
C2311       C  0.04786966  0.95997906  0.59768540     0.08700
C2312       C  0.04185231  0.93653787  0.57365154    -0.13500
H2313       H  0.05929811  0.89832163  0.54255938     0.12700
H2314       H  0.12130699  0.94199437  0.60787865     0.12700
H2315       H  0.08141173  0.97833561  0.62949794     0.12700
H2316       H  0.02000502  0.93547373  0.56332534     0.12700
C2317       C  0.17818908  0.80292836  0.93805852    -0.16600
C2318       C  0.20528182  0.80294433  0.92334501    -0.31700
H2319       H  0.15911284  0.78912641  0.92867110     0.12500
H2320       H  0.22359830  0.81784439  0.93319946     0.13000
C2321       C  0.19715769  0.79957125  0.56034766    -0.16600
C2322       C  0.18294082  0.79264267  0.58746407    -0.31700
H2323       H  0.21947554  0.78993437  0.55565476     0.12500
H2324       H  0.16009227  0.80081245  0.59182522     0.13000
C2325       C  0.04309857  0.56109875  0.83920882    -0.13500
C2326       C  0.04302496  0.52538408  0.84149425     0.08700
C2327       C  0.06628082  0.50673030  0.82726513    -0.13500
C2328       C  0.09042339  0.52359021  0.81290376    -0.13500
C2329       C  0.09144436  0.55941046  0.81194169     0.08700
C2330       C  0.06715016  0.57806502  0.82426169    -0.13500
H2331       H  0.02559435  0.57586425  0.85052731     0.12700
H2332       H  0.06653071  0.47905928  0.82885545     0.12700
H2333       H  0.10829921  0.50858966  0.80255752     0.12700
H2334       H  0.06718693  0.60575886  0.82307590     0.12700
C2335       C  0.04950344  0.96806519  0.95428684    -0.13500
C2336       C  0.03284335  0.94987515  0.93204125     0.08700
C2337       C  0.04109879  0.91599913  0.92426961    -0.13500
C2338       C  0.06646070  0.90181865  0.93680887    -0.13500
C2339       C  0.08442387  0.92178268  0.95620936     0.08700
C2340       C  0.07523069  0.95428148  0.96593588    -0.13500
H2341       H  0.04452816  0.99440215  0.96023494     0.12700
H2342       H  0.02972199  0.90136493  0.90655650     0.12700
H2343       H  0.07306527  0.87623243  0.92989392     0.12700
H2344       H  0.08851919  0.96943519  0.98191917     0.12700
C2345       C  0.92596013  0.54453281  0.53663884    -0.13500
C2346       C  0.91319998  0.57536255  0.54697386     0.08700
C2347       C  0.92616375  0.59328422  0.57168549    -0.13500
C2348       C  0.95051416  0.57960871  0.58680824    -0.13500
C2349       C  0.96330458  0.54839446  0.57672716     0.08700
C2350       C  0.95049739  0.53117680  0.55134902    -0.13500
H2351       H  0.91663129  0.53032148  0.51732480     0.12700
H2352       H  0.91668610  0.61706287  0.58013425     0.12700
H2353       H  0.95821395  0.59273471  0.60739990     0.12700
H2354       H  0.95829481  0.50631043  0.54379978     0.12700
C2355       C  0.90512983  0.53819606  0.93039534    -0.13500
C2356       C  0.90540043  0.57373660  0.93557293     0.08700
C2357       C  0.93028057  0.59355844  0.92537477    -0.13500
C2358       C  0.95562920  0.57740137  0.91258991    -0.13500
C2359       C  0.95593634  0.54156242  0.90995513     0.08700
C2360       C  0.93020404  0.52226050  0.91783568    -0.13500
H2361       H  0.88615332  0.52242937  0.93799324     0.12700
H2362       H  0.93100922  0.62098381  0.92947755     0.12700
H2363       H  0.97542075  0.59254010  0.90639885     0.12700
H2364       H  0.93009543  0.49457367  0.91571549     0.12700
C2365       C  0.75623271  0.54660967  0.92405628    -0.16600
C2366       C  0.77718584  0.53447353  0.94248445    -0.31700
H2367       H  0.74943368  0.57300402  0.92756815     0.12500
H2368       H  0.78592923  0.50907054  0.93834015     0.13000
C2369       C  0.76781189  0.56444196  0.56451195    -0.16600
C2370       C  0.77178287  0.53508765  0.57984499    -0.31700
H2371       H  0.74803386  0.57938989  0.56955534     0.12500
H2372       H  0.79051908  0.51896216  0.57339493     0.13000
C2373       C  0.93287798  0.95926926  0.71112047    -0.13500
C2374       C  0.91678404  0.93177995  0.69766498     0.08700
C2375       C  0.92767928  0.91701952  0.66994782    -0.13500
C2376       C  0.95258892  0.93179965  0.65445253    -0.13500
C2377       C  0.96732135  0.96082611  0.66695024     0.08700
C2378       C  0.95804608  0.97352909  0.69597208    -0.13500
H2379       H  0.92540078  0.97045448  0.73299761     0.12700
H2380       H  0.91591396  0.89550585  0.65941719     0.12700
H2381       H  0.95891904  0.92233311  0.63156922     0.12700
H2382       H  0.94975847  0.51427791  0.69114060     0.12700
C2383       C  0.90860041  0.96610076  0.82387634    -0.13500
C2384       C  0.90799929  0.93174516  0.81376127     0.08700
C2385       C  0.93183725  0.91060245  0.82086660    -0.13500
C2386       C  0.95597101  0.92357613  0.83745246    -0.13500
C2387       C  0.95687854  0.95802684  0.84721803     0.08700
C2388       C  0.93294068  0.97918966  0.84032451    -0.13500
H2389       H  0.89066827  0.98307996  0.81835365     0.12700
H2390       H  0.93206347  0.88409289  0.81317022     0.12700
H2391       H  0.97416889  0.90668868  0.84225391     0.12700
H2392       H  0.92848202  0.50577073  0.85155494     0.12700
C2393       C  0.76526666  0.93461102  0.82061979    -0.16600
C2394       C  0.77229017  0.95879176  0.84185044    -0.31700
H2395       H  0.74214186  0.92563257  0.81909525     0.12500
H2396       H  0.79543002  0.96685664  0.84501603     0.13000
C2397       C  0.76722263  0.95132501  0.69533155    -0.16600
C2398       C  0.77378992  0.96605310  0.66803045    -0.31700
H2399       H  0.74419279  0.95134393  0.70411007     0.12500
H2400       H  0.79585344  0.96334639  0.65723400     0.13000
C2401       C  0.72840149  0.71681004  0.82739427    -0.16600
C2402       C  0.73602141  0.69302492  0.80600857    -0.31700
H2403       H  0.70693998  0.72926522  0.82621911     0.12500
H2404       H  0.75824027  0.68219744  0.80621747     0.13000
C2405       C  0.72489101  0.78870116  0.91163833    -0.16600
C2406       C  0.73179716  0.81202023  0.93357701    -0.31700
H2407       H  0.70168432  0.78152746  0.90758741     0.12500
H2408       H  0.75499663  0.82036047  0.93601885     0.13000
C2409       C  0.79503787  0.79964740  0.82806903    -0.16600
C2410       C  0.82313976  0.80422722  0.81669597    -0.31700
H2411       H  0.77687114  0.81303037  0.81752142     0.12500
H2412       H  0.84210081  0.79236025  0.82709501     0.13000
C2413       C  0.80926192  0.70691751  0.90810645    -0.16600
C2414       C  0.79606076  0.68240061  0.92536628    -0.31700
H2415       H  0.83312191  0.71244896  0.90951229     0.12500
H2416       H  0.77217622  0.67760560  0.92254967     0.13000
C2417       C  0.73749865  0.79624993  0.58157399    -0.16600
C2418       C  0.72690331  0.78846940  0.55351568    -0.31700
H2419       H  0.73175545  0.82030303  0.59292676     0.12500
H2420       H  0.73026244  0.76298226  0.54381633     0.13000
C2421       C  0.72664962  0.71971143  0.66553271    -0.16600
C2422       C  0.71864315  0.68653989  0.66917095    -0.31700
H2423       H  0.71924238  0.73868137  0.68251602     0.12500
H2424       H  0.72527096  0.66750872  0.65198386     0.13000
C2425       C  0.79669504  0.80113154  0.66517769    -0.16600
C2426       C  0.82272785  0.80424041  0.68005350    -0.31700
H2427       H  0.77880433  0.81853918  0.67145651     0.12500
H2428       H  0.84077263  0.78664316  0.67505785     0.13000
C2429       C  0.81006828  0.69946902  0.58822175    -0.16600
C2430       C  0.82721761  0.70601396  0.56290845    -0.31700
H2431       H  0.80421448  0.67275942  0.59269848     0.12500
H2432       H  0.83450864  0.73203598  0.55764133     0.13000
loop_ 
_geom_bond_atom_site_label_1 
_geom_bond_atom_site_label_2 
_geom_bond_distance 
_geom_bond_site_symmetry_2 
_ccdc_geom_bond_type 
C1            C2   1.522       .  S
C1            C7   1.535       .  S
C1            C5   1.547       .  S
C1          C605   1.519       .  S
C2            H9   1.087       .  S
C2            C3   1.357       .  D
C3            C4   1.545       .  S
C3          C593   1.474       .  S
C4            C8   1.540       .  S
C4            C6   1.554       .  S
C4           H10   1.107       .  S
C5           H11   1.085       .  S
C5            C6   1.379       .  D
C6          C601   1.504       .  S
C7           H12   1.082       .  S
C7            C8   1.369       .  D
C8          C597   1.502       .  S
C13          C14   1.533       .  S
C13          C19   1.530       .  S
C13          C17   1.547       .  S
C13         C589   1.513       .  S
C14          H21   1.087       .  S
C14          C15   1.363       .  D
C15          C16   1.537       .  S
C15         C577   1.485       .  S
C16          C20   1.541       .  S
C16          C18   1.541       .  S
C16          H22   1.111       .  S
C17          H23   1.086       .  S
C17          C18   1.379       .  D
C18         C585   1.484       .  S
C19          H24   1.086       .  S
C19          C20   1.356       .  D
C20         C581   1.479       .  S
O25          C40   1.256       .  A
O25         Al33   1.909       .  S
C26          O36   1.271       .  A
C26          O27   1.266       .  A
C26         C573   1.468       .  S
O27         Al29   1.914       .  S
O28          C30   1.260       .  A
O28         Al29   1.888       .  S
Al29         O37   1.930       .  S
Al29         O39   1.879       .  S
Al29         O38   1.786       .  S
C30          O43   1.268       .  A
C30         C602   1.486       .  S
O31          C41   1.253       .  A
O31         Al33   1.916       .  S
O32          C45   1.269       .  A
O32         Al42   1.882       .  S
Al33         O46   1.949       .  S
Al33         O43   1.944       .  S
Al33         O38   1.799       .  S
O34          C41   1.248       .  A
O34         Al42   1.873       .  S
O35          C44   1.252       .  A
O35         Al42   1.896       .  S
O36         Al42   1.918       .  S
O37          C44   1.260       .  A
O38         Al42   1.786       .  S
O39          C40   1.255       .  A
C40         C586   1.484       .  S
C41         C550   1.469       .  S
C44         C569   1.473       .  S
C45          O46   1.277       .  A
C45         C560   1.482       .  S
O47          C62   1.255       .  A
O47        Al663   1.920       .  S
C48          O58   1.259       .  A
C48          O49   1.251       .  A
C48         C545   1.473       .  S
O49        Al659   1.879   1_554  S
O50          C52   1.268       .  A
O50        Al659   1.918   1_554  S
Al51         O59   1.928       .  S
Al51         O61   1.897       .  S
Al51        O657   1.891       .  S
Al51        O658   1.945       .  S
Al51         O60   1.774       .  S
C52          O65   1.263       .  A
C52         C606   1.481       .  S
O53          C63   1.267       .  A
O53         Al55   1.941   1_554  S
O54          C67   1.266       .  A
O54         Al64   1.895       .  S
Al55         O65   1.909   1_556  S
Al55        O655   1.952       .  S
Al55        O676   1.913       .  S
Al55        O668   1.800       .  S
O56          C63   1.260       .  A
O56        Al672   1.882       .  S
O57          C66   1.254       .  A
O57         Al64   1.884       .  S
O58        Al672   1.932       .  S
O59          C66   1.266       .  A
O60         Al64   1.786       .  S
O60        Al663   1.802       .  S
O61          C62   1.255       .  A
C62         C590   1.478       .  S
C63         C522   1.462       .  S
Al64        O664   1.897       .  S
Al64        O666   1.903       .  S
C66         C542   1.482       .  S
C67          O68   1.268       .  A
C67         C532   1.461       .  S
O68        Al663   1.906       .  S
C69          C70   1.543   1_455  S
C69          C75   1.521       .  S
C69          C73   1.537   1_455  S
C69         C512   1.517       .  S
C70        H1293   1.086       .  S
C70        C1287   1.364       .  D
C71          C72   1.527   1_545  S
C71        C1286   1.364   1_545  D
C71         C535   1.461       .  S
C72          C76   1.541   1_655  S
C72        C1290   1.547       .  S
C72          H78   1.109   1_565  S
C73          H79   1.085       .  S
C73          C74   1.374       .  D
C74        C1288   1.553       .  S
C74         C563   1.493       .  S
C75          H80   1.086       .  S
C75        C1292   1.357       .  D
C76        C1291   1.356       .  D
C76         C502   1.480   1_565  S
H77        C1286   1.086       .  S
O81          C96   1.264       .  A
O81        Al697   1.949       .  S
C82          O92   1.256       .  A
C82          O83   1.253       .  A
C82         C475   1.457       .  S
O83         Al85   1.890       .  S
O84          C86   1.264       .  A
O84         Al85   1.912       .  S
Al85        O701   1.906   1_554  S
Al85        O703   1.891   1_554  S
Al85         O94   1.792       .  S
C86          O99   1.260       .  A
C86         C497   1.481       .  S
O87          C97   1.271       .  A
O87         Al89   1.926       .  S
O88         C101   1.274       .  A
O88        Al706   1.929       .  S
Al89         O99   1.914       .  S
Al89        O689   1.908   1_554  S
Al89        O710   1.876   1_554  S
Al89         O94   1.796       .  S
O90          C97   1.261       .  A
O90         Al98   1.880       .  S
O91         C100   1.259       .  A
O91        Al706   1.900       .  S
O92         Al98   1.891       .  S
O93         C100   1.260       .  A
O93        Al693   1.904       .  S
O94         Al98   1.778       .  S
O95          C96   1.253       .  A
O95        Al693   1.876       .  S
C96         C493   1.481       .  S
C97         C484   1.481       .  S
Al98        O696   1.890   1_554  S
Al98        O699   1.915   1_554  S
C100        C480   1.474       .  S
C101        O102   1.269       .  A
C101        C515   1.473       .  S
O102       Al697   1.896       .  S
O103        C118   1.263       .  A
O103       Al111   1.933       .  S
C104        O114   1.262       .  A
C104        O105   1.254       .  A
C104        C453   1.466       .  S
O105       Al107   1.882       .  S
O106        C108   1.262       .  A
O106       Al107   1.898       .  S
Al107       O115   1.901       .  S
Al107       O117   1.895       .  S
Al107       O116   1.768       .  S
C108        O121   1.265       .  A
C108        C467   1.479       .  S
O109        C119   1.267       .  A
O109       Al111   1.908       .  S
O110        C123   1.259       .  A
O110       Al120   1.892       .  S
Al111       O124   1.895       .  S
Al111       O121   1.943       .  S
Al111       O116   1.786       .  S
O112        C119   1.266       .  A
O112       Al120   1.912       .  S
O113        C122   1.266       .  A
O113       Al120   1.927       .  S
O114       Al120   1.914       .  S
O115        C122   1.263       .  A
O116       Al120   1.777       .  S
O117        C118   1.262       .  A
C118        C471   1.483       .  S
C119        C458   1.473       .  S
C122        C449   1.480       .  S
C123        O124   1.257       .  A
C123        C505   1.454       .  S
C125        C126   1.540       .  S
C125        C131   1.527       .  S
C125        C129   1.534       .  S
C125        C472   1.516       .  S
C126        H133   1.086       .  S
C126        C127   1.375       .  D
C127        C128   1.549       .  S
C127        C442   1.495       .  S
C128        C132   1.541       .  S
C128        C130   1.547       .  S
C128        H134   1.109       .  S
C129        H135   1.086       .  S
C129        C130   1.372       .  D
C130        C494   1.481       .  S
C131        H136   1.088       .  S
C131        C132   1.354       .  D
C132        C445   1.489       .  S
C137        C138   1.530       .  S
C137        C143   1.532       .  S
C137        C141   1.547       .  S
C137        C468   1.517       .  S
C138        H145   1.087       .  S
C138        C139   1.355       .  D
C139        C140   1.533       .  S
C139        C433   1.466       .  S
C140        C144   1.533       .  S
C140        C142   1.534       .  S
C140        H146   1.111       .  S
C141        H147   1.085       .  S
C141        C142   1.381       .  D
C142        C498   1.485       .  S
C143        H148   1.084       .  S
C143        C144   1.369       .  D
C144        C437   1.484       .  S
C149        C150   1.528       .  S
C149        C155   1.548   1_655  S
C149        C153   1.531       .  S
C149        C525   1.522       .  S
C150       H1373   1.087   1_545  S
C150       C1367   1.355   1_545  D
C151        C152   1.542   1_655  S
C151       C1366   1.358       .  D
C151        C553   1.476       .  S
C152        C156   1.531       .  S
C152       C1370   1.548       .  S
C152        H158   1.110       .  S
C153        H159   1.085       .  S
C153        C154   1.366   1_655  D
C154       C1368   1.547   1_545  S
C154        C461   1.490       .  S
C155       H1376   1.083       .  S
C155       C1372   1.374   1_545  D
C156       C1371   1.375   1_455  D
C156        C487   1.473       .  S
H157       C1366   1.087       .  S
H160       C1371   1.083   1_455  S
O161        C176   1.260       .  A
O161       Al169   1.920       .  S
C162        O172   1.266       .  A
C162        O163   1.263       .  A
C162        C446   1.474       .  S
O163       Al165   1.911       .  S
O164        C166   1.258       .  A
O164       Al165   1.866       .  S
Al165       O173   1.905       .  S
Al165       O175   1.891       .  S
Al165       O174   1.775       .  S
C166        O179   1.264       .  A
C166        C426   1.470       .  S
O167        C177   1.263       .  A
O167       Al169   1.922       .  S
O168        C181   1.266       .  A
O168       Al178   1.901       .  S
Al169       O182   1.906       .  S
Al169       O179   1.925       .  S
Al169       O174   1.788       .  S
O170        C177   1.253       .  A
O170       Al178   1.875       .  S
O171        C180   1.261       .  A
O171       Al178   1.902       .  S
O172       Al178   1.927       .  S
O173        C180   1.258       .  A
O174       Al178   1.777       .  S
O175        C176   1.259       .  A
C176        C429   1.486       .  S
C177        C416   1.465       .  S
C180        C434   1.470       .  S
C181        O182   1.265       .  A
C181        C409   1.462       .  S
O183        C198   1.258       .  A
O183       Al799   1.907   1_554  S
C184        O194   1.262       .  A
C184        O185   1.262       .  A
C184        C441   1.488       .  S
O185       Al795   1.915       .  S
O186        C188   1.246       .  A
O186       Al795   1.843       .  S
Al187       O195   1.865       .  S
Al187       O197   1.916       .  S
Al187       O793   1.936   1_554  S
Al187       O794   1.850   1_554  S
Al187       O196   1.766       .  S
C188        O201   1.268       .  A
C188        C398   1.460       .  S
O189        C199   1.269       .  A
O189       Al191   1.915       .  S
O190        C203   1.266       .  A
O190       Al200   1.892       .  S
Al191       O201   1.969       .  S
Al191       O791   1.928       .  S
Al191       O812   1.918       .  S
Al191       O804   1.792       .  S
O192        C199   1.267       .  A
O192       Al808   1.912       .  S
O193        C202   1.266       .  A
O193       Al200   1.944       .  S
O194       Al808   1.919       .  S
O195        C202   1.251       .  A
O196       Al200   1.782       .  S
O196       Al799   1.786   1_554  S
O197        C198   1.263       .  A
C198        C401   1.476       .  S
C199        C378   1.471       .  S
Al200       O800   1.910   1_554  S
Al200       O802   1.920   1_554  S
C202        C438   1.465       .  S
C203        O204   1.269       .  A
C203        C388   1.471       .  S
O204       Al799   1.929   1_554  S
C205        C206   1.532   1_545  S
C205        C211   1.541       .  S
C205        C397   1.516       .  S
C205       C1425   1.534   1_545  S
C206        H213   1.087       .  S
C206       C1423   1.358       .  D
C207        C208   1.536       .  S
C207       C1422   1.361       .  D
C207        C479   1.480       .  S
C208        C210   1.538       .  S
C208       C1428   1.541       .  S
C208        H214   1.111       .  S
C209       C1421   1.530       .  S
C209        H215   1.085       .  S
C209        C210   1.369       .  D
C210        C425   1.470       .  S
C211        H216   1.083       .  S
C211        C212   1.369       .  D
C212       C1424   1.544   1_545  S
C212        C450   1.495       .  S
C217        C218   1.538       .  S
C217        C223   1.526       .  S
C217        C402   1.520       .  S
C217       C1437   1.549       .  S
C218        H225   1.085       .  S
C218        C219   1.370       .  D
C219       C1436   1.527   1_545  S
C219        C454   1.483       .  S
C220        C224   1.526       .  S
C220        C222   1.543       .  S
C220       C1435   1.525       .  S
C220        H226   1.112       .  S
C221       C1433   1.546       .  S
C221        H227   1.085       .  S
C221        C222   1.378       .  D
C222        C430   1.485       .  S
C223        H228   1.087       .  S
C223       C1440   1.357   1_545  D
C224       C1439   1.358       .  D
C224        C476   1.467       .  S
C229        C230   1.524       .  S
C229        C235   1.550       .  S
C229        C233   1.528       .  S
C229        C419   1.517       .  S
C230        H237   1.087       .  S
C230        C231   1.358       .  D
C231        C232   1.540       .  S
C231        C381   1.474       .  S
C232        C236   1.536       .  S
C232        C234   1.549       .  S
C232        H238   1.110       .  S
C233        H239   1.086       .  S
C233        C234   1.359       .  D
C234        C368   1.479       .  S
C235        H240   1.085       .  S
C235        C236   1.375       .  D
C236        C358   1.481       .  S
C241        C242   1.533   1_545  S
C241        C247   1.534       .  S
C241        C245   1.542   1_545  S
C241        C349   1.524       .  S
C242        H249   1.087       .  S
C242       C1459   1.357       .  D
C243        C244   1.532       .  S
C243       C1458   1.362       .  D
C243        C570   1.487       .  S
C244        C246   1.534       .  S
C244       C1464   1.542       .  S
C244        H250   1.112       .  S
C245       H1467   1.085       .  S
C245       C1462   1.380       .  D
C246       C1461   1.379       .  D
C246        C353   1.479       .  S
C247        H252   1.087       .  S
C247        C248   1.358       .  D
C248       C1460   1.549   1_545  S
C248        C541   1.490       .  S
H251       C1461   1.085       .  S
O253        C268   1.262       .  A
O253       Al261   1.932       .  S
C254        O264   1.258       .  A
C254        O255   1.265       .  A
C254        C578   1.475       .  S
O255       Al257   1.928       .  S
O256        C258   1.254       .  A
O256       Al257   1.852       .  S
Al257       O265   1.874       .  S
Al257       O267   1.894       .  S
Al257       O266   1.778       .  S
C258        O271   1.268       .  A
C258        C350   1.471       .  S
O259        C269   1.265       .  A
O259       Al261   1.934       .  S
O260        C273   1.264       .  A
O260       Al270   1.874       .  S
Al261       O274   1.927       .  S
Al261       O271   1.955       .  S
Al261       O266   1.806       .  S
O262        C269   1.255       .  A
O262       Al270   1.876       .  S
O263        C272   1.262       .  A
O263       Al270   1.949       .  S
O264       Al270   1.893       .  S
O265        C272   1.252       .  A
O266       Al270   1.793       .  S
O267        C268   1.257       .  A
C268        C345   1.488       .  S
C269        C361   1.486       .  S
C272        C598   1.477       .  S
C273        O274   1.269       .  A
C273        C336   1.463       .  S
C275        C276   1.537       .  S
C275        C281   1.533       .  S
C275        C279   1.549   1_545  S
C275        C346   1.529       .  S
C276        H283   1.083       .  S
C276        C277   1.368       .  D
C277       C1494   1.536   1_545  S
C277        C546   1.494       .  S
C278        C282   1.531       .  S
C278        C280   1.542       .  S
C278       C1493   1.529       .  S
C278        H284   1.112       .  S
C279       H1501   1.085       .  S
C279       C1496   1.381       .  D
C280       C1495   1.382       .  D
C280        C332   1.496       .  S
C281        H286   1.086       .  S
C281       C1498   1.366   1_545  D
C282       C1497   1.365       .  D
C282        C574   1.481       .  S
H285       C1495   1.085       .  S
O287        C302   1.265       .  A
O287       Al295   1.935       .  S
C288        O298   1.259       .  A
C288        O289   1.270       .  A
C288        C582   1.480       .  S
O289       Al899   1.945       .  S
O290        C292   1.262       .  A
O290       Al899   1.889       .  S
Al291       O299   1.937       .  S
Al291       O301   1.907       .  S
Al291       O897   1.937   1_554  S
Al291       O898   1.914   1_554  S
Al291       O300   1.782       .  S
C292        O305   1.263       .  A
C292        C354   1.481       .  S
O293        C303   1.263       .  A
O293       Al903   1.922       .  S
O294        C307   1.254       .  A
O294       Al304   1.886       .  S
Al295       O308   1.907       .  S
Al295       O901   1.939   1_554  S
Al295       O913   1.894   1_554  S
Al295       O300   1.790       .  S
O296        C303   1.253       .  A
O296       Al912   1.870       .  S
O297        C306   1.262       .  A
O297       Al304   1.893       .  S
O298       Al912   1.894       .  S
O299        C306   1.271       .  A
O300       Al304   1.782       .  S
O301        C302   1.263       .  A
C302        C331   1.495       .  S
C303        C371   1.465       .  S
Al304       O904   1.885   1_554  S
Al304       O906   1.908   1_554  S
O305       Al903   1.924       .  S
C306        C594   1.478       .  S
C307        O308   1.257       .  A
C307        C325   1.457       .  S
C309        C310   1.543       .  S
C309        C315   1.529       .  S
C309        C313   1.541       .  S
C309        C339   1.519       .  S
C310        H317   1.086       .  S
C310        C311   1.372       .  D
C311        C312   1.530       .  S
C311        C406   1.476       .  S
C312        C316   1.531       .  S
C312        C314   1.537       .  S
C312        H318   1.111       .  S
C313        H319   1.083       .  S
C313        C314   1.364       .  D
C314        C391   1.468       .  S
C315        H320   1.087       .  S
C315        C316   1.356       .  D
C316        C322   1.468       .  S
C321        C322   1.408       .  A
C321        C326   1.395       .  A
C321        H327   1.083       .  S
C322        C323   1.396       .  A
C323        C324   1.394       .  A
C323        H328   1.083       .  S
C324        C325   1.406       .  A
C324        H329   1.084       .  S
C325        C326   1.396       .  A
C326        H330   1.083       .  S
C331        H333   1.086       .  S
C331        C332   1.349       .  D
C332        H334   1.086       .  S
C335        C336   1.399       .  A
C335        C340   1.402       .  A
C335        H341   1.083       .  S
C336        C337   1.400       .  A
C337        C338   1.388       .  A
C337        H342   1.084       .  S
C338        C339   1.406       .  A
C338        H343   1.084       .  S
C339        C340   1.413       .  A
C340        H344   1.078       .  S
C345        H347   1.085       .  S
C345        C346   1.349       .  D
C346        H348   1.088       .  S
C349        H351   1.085       .  S
C349        C350   1.349       .  D
C350        H352   1.089       .  S
C353        H355   1.087       .  S
C353        C354   1.341       .  D
C354        H356   1.086       .  S
C357        C358   1.406       .  A
C357        C362   1.409       .  A
C357        H363   1.083       .  S
C358        C359   1.398       .  A
C359        C360   1.395       .  A
C359        H364   1.084       .  S
C360        C361   1.409       .  A
C360        H365   1.083       .  S
C361        C362   1.407       .  A
C362        H366   1.083       .  S
C367        C368   1.397       .  A
C367        C372   1.390       .  A
C367        H373   1.082       .  S
C368        C369   1.413       .  A
C369        C370   1.397       .  A
C369        H374   1.082       .  S
C370        C371   1.396       .  A
C370        H375   1.083       .  S
C371        C372   1.407       .  A
C372        H376   1.084       .  S
C377        C378   1.399       .  A
C377        C382   1.399       .  A
C377        H383   1.083       .  S
C378        C379   1.407       .  A
C379        C380   1.397       .  A
C379        H384   1.084       .  S
C380        C381   1.398       .  A
C380        H385   1.083       .  S
C381        C382   1.408       .  A
C382        H386   1.083       .  S
C387        C388   1.402       .  A
C387        C392   1.393       .  A
C387        H393   1.083       .  S
C388        C389   1.408       .  A
C389        C390   1.399       .  A
C389        H394   1.083       .  S
C390        C391   1.400       .  A
C390        H395   1.083       .  S
C391        C392   1.400       .  A
C392        H396   1.081       .  S
C397        H399   1.086       .  S
C397        C398   1.338       .  D
C398        H400   1.089       .  S
C401        H403   1.086       .  S
C401        C402   1.347       .  D
C402        H404   1.088       .  S
C405        C406   1.400       .  A
C405        C410   1.392       .  A
C405        H411   1.083       .  S
C406        C407   1.407       .  A
C407        C408   1.395       .  A
C407        H412   1.079       .  S
C408        C409   1.398       .  A
C408        H413   1.083       .  S
C409        C410   1.405       .  A
C410        H414   1.084       .  S
C415        C416   1.393       .  A
C415        C420   1.396       .  A
C415        H421   1.083       .  S
C416        C417   1.407       .  A
C417        C418   1.393       .  A
C417        H422   1.083       .  S
C418        C419   1.402       .  A
C418        H423   1.081       .  S
C419        C420   1.417       .  A
C420        H424   1.082       .  S
C425        H427   1.087       .  S
C425        C426   1.344       .  D
C426        H428   1.086       .  S
C429        H431   1.085       .  S
C429        C430   1.349       .  D
C430        H432   1.087       .  S
C433        H435   1.088       .  S
C433        C434   1.340       .  D
C434        H436   1.086       .  S
C437        H439   1.086       .  S
C437        C438   1.340       .  D
C438        H440   1.085       .  S
C441        H443   1.084       .  S
C441        C442   1.352       .  D
C442        H444   1.087       .  S
C445        H447   1.085       .  S
C445        C446   1.348       .  D
C446        H448   1.088       .  S
C449        H451   1.082       .  S
C449        C450   1.351       .  D
C450        H452   1.086       .  S
C453        H455   1.085       .  S
C453        C454   1.337       .  D
C454        H456   1.086       .  S
C457        C458   1.399       .  A
C457        C462   1.397       .  A
C457        H463   1.083       .  S
C458        C459   1.406       .  A
C459        C460   1.396       .  A
C459        H464   1.083       .  S
C460        C461   1.402       .  A
C460       H1681   1.082   1_545  S
C461        C462   1.413       .  A
C462        H466   1.081       .  S
H465       C1676   1.082       .  S
C467        H469   1.086       .  S
C467        C468   1.344       .  D
C468        H470   1.088       .  S
C471        H473   1.085       .  S
C471        C472   1.343       .  D
C472        H474   1.089       .  S
C475        H477   1.087       .  S
C475        C476   1.335       .  D
C476        H478   1.086       .  S
C479        H481   1.086       .  S
C479        C480   1.344       .  D
C480        H482   1.087       .  S
C483        C484   1.406       .  A
C483        C488   1.405       .  A
C483        H489   1.083       .  S
C484        C485   1.410       .  A
C485        C486   1.392       .  A
C485        H490   1.083       .  S
C486        C487   1.396       .  A
C486        H491   1.084       .  S
C487        C488   1.405       .  A
C488        H492   1.083       .  S
C493        H495   1.086       .  S
C493        C494   1.349       .  D
C494        H496   1.086       .  S
C497        H499   1.086       .  S
C497        C498   1.340       .  D
C498        H500   1.087       .  S
C501        C502   1.412       .  A
C501        C506   1.389       .  A
C501        H507   1.082       .  S
C502        C503   1.402       .  A
C503        C504   1.395       .  A
C503        H508   1.082       .  S
C504        C505   1.403       .  A
C504        H509   1.084       .  S
C505        C506   1.393       .  A
C506        H510   1.084       .  S
C511        C512   1.409       .  A
C511        C516   1.390       .  A
C511        H517   1.081       .  S
C512        C513   1.412       .  A
C513        C514   1.400       .  A
C513        H518   1.082       .  S
C514        C515   1.402       .  A
C514        H519   1.083       .  S
C515        C516   1.401       .  A
C516        H520   1.084       .  S
C521        C522   1.404       .  A
C521        C526   1.400       .  A
C521        H527   1.084       .  S
C522        C523   1.395       .  A
C523        C524   1.392       .  A
C523        H528   1.083       .  S
C524        C525   1.412       .  A
C524        H529   1.084       .  S
C525        C526   1.408       .  A
C526        H530   1.079       .  S
C531        C532   1.403       .  A
C531        C536   1.387       .  A
C531        H537   1.084       .  S
C532        C533   1.403       .  A
C533        C534   1.400       .  A
C533        H538   1.083       .  S
C534        C535   1.401       .  A
C534        H539   1.083       .  S
C535        C536   1.397       .  A
C536        H540   1.084   1_545  S
C541        H543   1.088       .  S
C541        C542   1.340       .  D
C542        H544   1.084       .  S
C545        H547   1.082       .  S
C545        C546   1.347       .  D
C546        H548   1.086       .  S
C549        C550   1.407       .  A
C549        C554   1.395       .  A
C549        H555   1.084       .  S
C550        C551   1.399       .  A
C551        C552   1.402       .  A
C551        H556   1.083       .  S
C552        C553   1.410       .  A
C552        H557   1.083       .  S
C553        C554   1.397       .  A
C554       H1774   1.084       .  S
H558       C1770   1.084       .  S
C559        C560   1.405       .  A
C559        C564   1.393       .  A
C559        H565   1.083       .  S
C560        C561   1.405       .  A
C561        C562   1.403       .  A
C561        H566   1.083       .  S
C562        C563   1.409       .  A
C562        H567   1.082       .  S
C563        C564   1.405       .  A
C564       H1784   1.080       .  S
H568       C1780   1.081       .  S
C569        H571   1.087       .  S
C569        C570   1.340       .  D
C570        H572   1.086       .  S
C573        H575   1.088       .  S
C573        C574   1.337       .  D
C574        H576   1.086       .  S
C577        H579   1.082       .  S
C577        C578   1.350       .  D
C578        H580   1.083       .  S
C581        H583   1.085       .  S
C581        C582   1.339       .  D
C582        H584   1.084       .  S
C585        H587   1.083       .  S
C585        C586   1.347       .  D
C586        H588   1.082       .  S
C589        H591   1.088       .  S
C589        C590   1.342       .  D
C590        H592   1.087       .  S
C593        H595   1.086       .  S
C593        C594   1.341       .  D
C594        H596   1.087       .  S
C597        H599   1.086       .  S
C597        C598   1.350       .  D
C598        H600   1.080       .  S
C601        H603   1.086       .  S
C601        C602   1.351       .  D
C602        H604   1.082       .  S
C605        H607   1.089       .  S
C605        C606   1.345       .  D
C606        H608   1.086       .  S
C609        C610   1.532       .  S
C609        C615   1.535       .  S
C609        C613   1.553       .  S
C609       C1213   1.528       .  S
C610        H617   1.086       .  S
C610        C611   1.363       .  D
C611        C612   1.532       .  S
C611       C1201   1.481       .  S
C612        C616   1.538       .  S
C612        C614   1.536       .  S
C612        H618   1.112       .  S
C613        H619   1.085       .  S
C613        C614   1.381       .  D
C614       C1209   1.490       .  S
C615        H620   1.084       .  S
C615        C616   1.369       .  D
C616       C1205   1.494       .  S
C621        C622   1.539       .  S
C621        C627   1.532       .  S
C621        C625   1.537       .  S
C621       C1197   1.520       .  S
C622        H629   1.086       .  S
C622        C623   1.367       .  D
C623        C624   1.541       .  S
C623       C1185   1.491       .  S
C624        C628   1.545       .  S
C624        C626   1.542       .  S
C624        H630   1.111       .  S
C625        H631   1.084       .  S
C625        C626   1.374       .  D
C626       C1193   1.482       .  S
C627        H632   1.086       .  S
C627        C628   1.364       .  D
C628       C1189   1.499       .  S
O633        C648   1.258       .  A
O633       Al641   1.904       .  S
C634        O644   1.262       .  A
C634        O635   1.258       .  A
C634       C1181   1.477       .  S
O635       Al637   1.904       .  S
O636        C638   1.263       .  A
O636       Al637   1.901       .  S
Al637       O645   1.903       .  S
Al637       O647   1.897       .  S
Al637       O646   1.788       .  S
C638        O651   1.264       .  A
C638       C1210   1.491       .  S
O639        C649   1.265       .  A
O639       Al641   1.917       .  S
O640        C653   1.261       .  A
O640       Al650   1.895       .  S
Al641       O654   1.903       .  S
Al641       O651   1.933       .  S
Al641       O646   1.800       .  S
O642        C649   1.261       .  A
O642       Al650   1.888       .  S
O643        C652   1.263       .  A
O643       Al650   1.925       .  S
O644       Al650   1.927       .  S
O645        C652   1.260       .  A
O646       Al650   1.786       .  S
O647        C648   1.260       .  A
C648       C1194   1.476       .  S
C649       C1158   1.482       .  S
C652       C1177   1.480       .  S
C653        O654   1.261       .  A
C653       C1168   1.476       .  S
O655        C670   1.266       .  A
C656        O666   1.258       .  A
C656        O657   1.256       .  A
C656       C1153   1.474       .  S
O658        C660   1.274       .  A
Al659       O667   1.933       .  S
Al659       O669   1.862       .  S
Al659       O668   1.767       .  S
C660        O673   1.267       .  A
C660       C1214   1.482       .  S
O661        C671   1.255       .  A
O661       Al663   1.906       .  S
O662        C675   1.264       .  A
O662       Al672   1.901   1_556  S
Al663       O673   1.910       .  S
O664        C671   1.256       .  A
O665        C674   1.255       .  A
O665       Al672   1.869   1_556  S
O667        C674   1.270       .  A
O668       Al672   1.783   1_556  S
O669        C670   1.251       .  A
C670       C1198   1.473       .  S
C671       C1130   1.458       .  S
C674       C1150   1.469       .  S
C675        O676   1.266       .  A
C675       C1140   1.472       .  S
C677        C678   1.537   1_455  S
C677        C683   1.515       .  S
C677        C681   1.540   1_455  S
C677       C1120   1.509       .  S
C678       H1901   1.087       .  S
C678       C1895   1.370       .  D
C679        C680   1.540       .  S
C679       C1894   1.371       .  D
C679       C1143   1.474       .  S
C680        C684   1.547   1_655  S
C680       C1898   1.547   1_545  S
C680        H686   1.110       .  S
C681        H687   1.084       .  S
C681        C682   1.371       .  D
C682       C1896   1.544       .  S
C682       C1171   1.480       .  S
C683        H688   1.089       .  S
C683       C1900   1.350       .  D
C684       C1899   1.351   1_545  D
C684       C1110   1.478       .  S
H685       C1894   1.087       .  S
O689        C704   1.261       .  A
C690        O700   1.261       .  A
C690        O691   1.254       .  A
C690       C1083   1.462       .  S
O691       Al693   1.877       .  S
O692        C694   1.268       .  A
O692       Al693   1.922       .  S
Al693       O702   1.780       .  S
C694        O707   1.267       .  A
C694       C1105   1.468       .  S
O695        C705   1.261       .  A
O695       Al697   1.940       .  S
O696        C709   1.258       .  A
Al697       O707   1.901       .  S
Al697       O702   1.794       .  S
O698        C705   1.252       .  A
O698       Al706   1.894       .  S
O699        C708   1.264       .  A
O700       Al706   1.906       .  S
O701        C708   1.261       .  A
O702       Al706   1.775       .  S
O703        C704   1.260       .  A
C704       C1101   1.469       .  S
C705       C1092   1.481       .  S
C708       C1088   1.479       .  S
C709        O710   1.251       .  A
C709       C1123   1.454       .  S
O711        C726   1.267       .  A
O711       Al719   1.942       .  S
C712        O722   1.260       .  A
C712        O713   1.249       .  A
C712       C1061   1.469       .  S
O713       Al715   1.870       .  S
O714        C716   1.261       .  A
O714       Al715   1.878       .  S
Al715       O723   1.883       .  S
Al715       O725   1.877       .  S
Al715       O724   1.777       .  S
C716        O729   1.264       .  A
C716       C1075   1.471       .  S
O717        C727   1.271       .  A
O717       Al719   1.925       .  S
O718        C731   1.262       .  A
O718       Al728   1.899       .  S
Al719       O732   1.894       .  S
Al719       O729   1.939       .  S
Al719       O724   1.793       .  S
O720        C727   1.263       .  A
O720       Al728   1.889       .  S
O721        C730   1.268       .  A
O721       Al728   1.930       .  S
O722       Al728   1.922       .  S
O723        C730   1.261       .  A
O724       Al728   1.778       .  S
O725        C726   1.254       .  A
C726       C1079   1.464       .  S
C727       C1066   1.471       .  S
C730       C1057   1.473       .  S
C731        O732   1.256       .  A
C731       C1113   1.477       .  S
C733        C734   1.541       .  S
C733        C739   1.533       .  S
C733        C737   1.527       .  S
C733       C1080   1.515       .  S
C734        H741   1.086       .  S
C734        C735   1.372       .  D
C735        C736   1.546       .  S
C735       C1050   1.498       .  S
C736        C740   1.551       .  S
C736        C738   1.547       .  S
C736        H742   1.111       .  S
C737        H743   1.084       .  S
C737        C738   1.369       .  D
C738       C1102   1.479       .  S
C739        H744   1.087       .  S
C739        C740   1.361       .  D
C740       C1053   1.500       .  S
C745        C746   1.529       .  S
C745        C751   1.534       .  S
C745        C749   1.534       .  S
C745       C1076   1.503       .  S
C746        H753   1.087       .  S
C746        C747   1.360       .  D
C747        C748   1.531       .  S
C747       C1041   1.465       .  S
C748        C752   1.523       .  S
C748        C750   1.548       .  S
C748        H754   1.111       .  S
C749        H755   1.086       .  S
C749        C750   1.370       .  D
C750       C1106   1.479       .  S
C751        H756   1.085       .  S
C751        C752   1.366       .  D
C752       C1045   1.476       .  S
C757        C758   1.524       .  S
C757        C763   1.549   1_655  S
C757        C761   1.530   1_655  S
C757       C1133   1.519       .  S
C758       H1981   1.088       .  S
C758       C1975   1.352   1_545  D
C759        C760   1.538   1_655  S
C759       C1974   1.353       .  D
C759       C1161   1.470       .  S
C760        C764   1.538       .  S
C760       C1978   1.555       .  S
C760        H766   1.107       .  S
C761        H767   1.086       .  S
C761        C762   1.364       .  D
C762       C1976   1.550   1_545  S
C762       C1069   1.488       .  S
C763       H1984   1.083       .  S
C763       C1980   1.375   1_545  D
C764       C1979   1.373       .  D
C764       C1095   1.487       .  S
H765       C1974   1.088       .  S
H768       C1979   1.085       .  S
O769        C784   1.262       .  A
O769       Al777   1.896       .  S
C770        O780   1.262       .  A
C770        O771   1.266       .  A
C770       C1054   1.487       .  S
O771       Al773   1.936       .  S
O772        C774   1.247       .  A
O772       Al773   1.850       .  S
Al773       O781   1.874       .  S
Al773       O783   1.942       .  S
Al773       O782   1.784       .  S
C774        O787   1.257       .  A
C774       C1034   1.473       .  S
O775        C785   1.268       .  A
O775       Al777   1.907       .  S
O776        C789   1.259       .  A
O776       Al786   1.906       .  S
Al777       O790   1.905       .  S
Al777       O787   1.925       .  S
Al777       O782   1.804       .  S
O778        C785   1.265       .  A
O778       Al786   1.909       .  S
O779        C788   1.258       .  A
O779       Al786   1.899       .  S
O780       Al786   1.904       .  S
O781        C788   1.250       .  A
O782       Al786   1.784       .  S
O783        C784   1.273       .  A
C784       C1037   1.488       .  S
C785       C1024   1.475       .  S
C788       C1042   1.464       .  S
C789        O790   1.258       .  A
C789       C1017   1.470       .  S
O791        C806   1.264       .  A
C792        O802   1.265       .  A
C792        O793   1.268       .  A
C792       C1049   1.488       .  S
O794        C796   1.252       .  A
Al795       O803   1.845       .  S
Al795       O805   1.930       .  S
Al795       O804   1.766       .  S
C796        O809   1.267       .  A
C796       C1006   1.462       .  S
O797        C807   1.259       .  A
O797       Al799   1.895       .  S
O798        C811   1.263       .  A
O798       Al808   1.903       .  S
Al799       O809   1.946       .  S
O800        C807   1.262       .  A
O801        C810   1.266       .  A
O801       Al808   1.933       .  S
O803        C810   1.250       .  A
O804       Al808   1.776       .  S
O805        C806   1.268       .  A
C806       C1009   1.485       .  S
C807        C986   1.466       .  S
C810       C1046   1.457       .  S
C811        O812   1.264       .  A
C811        C996   1.479       .  S
C813        C814   1.532       .  S
C813        C819   1.537       .  S
C813       C2033   1.534   1_545  S
C813       C1005   1.512       .  S
C814        H821   1.087       .  S
C814       C2031   1.354   1_545  D
C815        C816   1.539       .  S
C815       C2030   1.355       .  D
C815       C1087   1.478       .  S
C816       C2036   1.543       .  S
C816        C818   1.544       .  S
C816        H822   1.111       .  S
C817       C2029   1.531       .  S
C817        H823   1.085       .  S
C817        C818   1.371       .  D
C818       C1033   1.468       .  S
C819        H824   1.084       .  S
C819        C820   1.370       .  D
C820       C2032   1.540   1_545  S
C820       C1058   1.490       .  S
C825        C826   1.542       .  S
C825        C831   1.527   1_545  S
C825       C2045   1.555       .  S
C825       C1010   1.533       .  S
C826        H833   1.086       .  S
C826        C827   1.369       .  D
C827       C2044   1.523   1_545  S
C827       C1062   1.481       .  S
C828       C2043   1.527       .  S
C828        C832   1.530       .  S
C828        C830   1.542       .  S
C828        H834   1.112       .  S
C829       C2041   1.551       .  S
C829        H835   1.084       .  S
C829        C830   1.384       .  D
C830       C1038   1.493       .  S
C831        H836   1.087       .  S
C831       C2048   1.357       .  D
C832       C2047   1.357       .  D
C832       C1084   1.474       .  S
C837        C838   1.519       .  S
C837        C843   1.543       .  S
C837        C841   1.538       .  S
C837       C1027   1.518       .  S
C838        H845   1.088       .  S
C838        C839   1.352       .  D
C839        C840   1.538       .  S
C839        C989   1.465       .  S
C840        C844   1.536       .  S
C840        C842   1.545       .  S
C840        H846   1.110       .  S
C841        H847   1.084       .  S
C841        C842   1.368       .  D
C842        C976   1.486       .  S
C843        H848   1.086       .  S
C843        C844   1.374       .  D
C844        C966   1.474       .  S
C849        C850   1.528   1_545  S
C849        C855   1.532       .  S
C849        C853   1.542   1_545  S
C849        C957   1.517       .  S
C850        H857   1.088       .  S
C850       C2067   1.355       .  D
C851        C852   1.548       .  S
C851       C2066   1.354       .  D
C851       C1178   1.488       .  S
C852       C2072   1.550       .  S
C852        C854   1.547       .  S
C852        H858   1.109       .  S
C853       H2075   1.084       .  S
C853       C2070   1.382       .  D
C854       C2069   1.382       .  D
C854        C961   1.487       .  S
C855        H860   1.087       .  S
C855        C856   1.357       .  D
C856       C2068   1.544   1_545  S
C856       C1149   1.480       .  S
H859       C2069   1.084       .  S
O861        C876   1.261       .  A
O861       Al869   1.923       .  S
C862        O872   1.259       .  A
C862        O863   1.263       .  A
C862       C1186   1.481       .  S
O863       Al865   1.926       .  S
O864        C866   1.255       .  A
O864       Al865   1.857       .  S
Al865       O873   1.881       .  S
Al865       O875   1.890       .  S
Al865       O874   1.779       .  S
C866        O879   1.265       .  A
C866        C958   1.464       .  S
O867        C877   1.263       .  A
O867       Al869   1.922       .  S
O868        C881   1.266       .  A
O868       Al878   1.890       .  S
Al869       O882   1.916       .  S
Al869       O879   1.938       .  S
Al869       O874   1.806       .  S
O870        C877   1.256       .  A
O870       Al878   1.874       .  S
O871        C880   1.263       .  A
O871       Al878   1.943       .  S
O872       Al878   1.904       .  S
O873        C880   1.253       .  A
O874       Al878   1.790       .  S
O875        C876   1.257       .  A
C876        C953   1.480       .  S
C877        C969   1.477       .  S
C880       C1206   1.475       .  S
C881        O882   1.265       .  A
C881        C944   1.469       .  S
C883        C884   1.537       .  S
C883        C889   1.532       .  S
C883        C887   1.544   1_545  S
C883        C954   1.521       .  S
C884        H891   1.084       .  S
C884        C885   1.365       .  D
C885       C2102   1.535   1_545  S
C885       C1154   1.489       .  S
C886       C2101   1.539       .  S
C886        C890   1.544       .  S
C886        C888   1.551       .  S
C886        H892   1.111       .  S
C887       H2109   1.084       .  S
C887       C2104   1.380       .  D
C888       C2103   1.379       .  D
C888        C940   1.499       .  S
C889        H894   1.086       .  S
C889       C2106   1.365   1_545  D
C890       C2105   1.365       .  D
C890       C1182   1.492       .  S
H893       C2103   1.084       .  S
O895        C910   1.264       .  A
O895       Al903   1.916       .  S
C896        O906   1.257       .  A
C896        O897   1.262       .  A
C896       C1190   1.481       .  S
O898        C900   1.264       .  A
Al899       O907   1.916       .  S
Al899       O909   1.924       .  S
Al899       O908   1.779       .  S
C900        O913   1.258       .  A
C900        C962   1.480       .  S
O901        C911   1.271       .  A
O902        C915   1.264       .  A
O902       Al912   1.882       .  S
Al903       O916   1.936       .  S
Al903       O908   1.790       .  S
O904        C911   1.264       .  A
O905        C914   1.256       .  A
O905       Al912   1.899       .  S
O907        C914   1.261       .  A
O908       Al912   1.776       .  S
O909        C910   1.265       .  A
C910        C939   1.492       .  S
C911        C979   1.479       .  S
C914       C1202   1.466       .  S
C915        O916   1.268       .  A
C915        C933   1.475       .  S
C917        C918   1.542       .  S
C917        C923   1.519       .  S
C917        C921   1.541       .  S
C917        C947   1.520       .  S
C918        H925   1.085       .  S
C918        C919   1.374       .  D
C919        C920   1.538       .  S
C919       C1014   1.490       .  S
C920        C924   1.539       .  S
C920        C922   1.546       .  S
C920        H926   1.109       .  S
C921        H927   1.084       .  S
C921        C922   1.370       .  D
C922        C999   1.475       .  S
C923        H928   1.089       .  S
C923        C924   1.352       .  D
C924        C930   1.474       .  S
C929        C930   1.404       .  A
C929        C934   1.406       .  A
C929        H935   1.083       .  S
C930        C931   1.401       .  A
C931        C932   1.387       .  A
C931        H936   1.084       .  S
C932        C933   1.403       .  A
C932        H937   1.083       .  S
C933        C934   1.408       .  A
C934        H938   1.083       .  S
C939        H941   1.085       .  S
C939        C940   1.352       .  D
C940        H942   1.086       .  S
C943        C944   1.403       .  A
C943        C948   1.405       .  A
C943        H949   1.083       .  S
C944        C945   1.398       .  A
C945        C946   1.388       .  A
C945        H950   1.084       .  S
C946        C947   1.409       .  A
C946        H951   1.083       .  S
C947        C948   1.412       .  A
C948        H952   1.080       .  S
C953        H955   1.086       .  S
C953        C954   1.346       .  D
C954        H956   1.089       .  S
C957        H959   1.085       .  S
C957        C958   1.348       .  D
C958        H960   1.089       .  S
C961        H963   1.086       .  S
C961        C962   1.345       .  D
C962        H964   1.084       .  S
C965        C966   1.404       .  A
C965        C970   1.405       .  A
C965        H971   1.083       .  S
C966        C967   1.398       .  A
C967        C968   1.392       .  A
C967        H972   1.084       .  S
C968        C969   1.407       .  A
C968        H973   1.084       .  S
C969        C970   1.406       .  A
C970        H974   1.083       .  S
C975        C976   1.404       .  A
C975        C980   1.396       .  A
C975        H981   1.082       .  S
C976        C977   1.407       .  A
C977        C978   1.398       .  A
C977        H982   1.083       .  S
C978        C979   1.404       .  A
C978        H983   1.083       .  S
C979        C980   1.406       .  A
C980        H984   1.083       .  S
C985        C986   1.400       .  A
C985        C990   1.397       .  A
C985        H991   1.083       .  S
C986        C987   1.406       .  A
C987        C988   1.394       .  A
C987        H992   1.084       .  S
C988        C989   1.397       .  A
C988        H993   1.084       .  S
C989        C990   1.406       .  A
C990        H994   1.084       .  S
C995        C996   1.403       .  A
C995       C1000   1.397       .  A
C995       H1001   1.083       .  S
C996        C997   1.409       .  A
C997        C998   1.399       .  A
C997       H1002   1.083       .  S
C998        C999   1.399       .  A
C998       H1003   1.083       .  S
C999       C1000   1.402       .  A
C1000      H1004   1.080       .  S
C1005      H1007   1.086       .  S
C1005      C1006   1.341       .  D
C1006      H1008   1.089       .  S
C1009      H1011   1.088       .  S
C1009      C1010   1.359       .  D
C1010      H1012   1.085       .  S
C1013      C1014   1.404       .  A
C1013      C1018   1.393       .  A
C1013      H1019   1.082       .  S
C1014      C1015   1.410       .  A
C1015      C1016   1.400       .  A
C1015      H1020   1.079       .  S
C1016      C1017   1.399       .  A
C1016      H1021   1.083       .  S
C1017      C1018   1.405       .  A
C1018      H1022   1.084       .  S
C1023      C1024   1.399       .  A
C1023      C1028   1.397       .  A
C1023      H1029   1.083       .  S
C1024      C1025   1.406       .  A
C1025      C1026   1.393       .  A
C1025      H1030   1.083       .  S
C1026      C1027   1.405       .  A
C1026      H1031   1.083       .  S
C1027      C1028   1.414       .  A
C1028      H1032   1.080       .  S
C1033      H1035   1.086       .  S
C1033      C1034   1.346       .  D
C1034      H1036   1.086       .  S
C1037      H1039   1.085       .  S
C1037      C1038   1.345       .  D
C1038      H1040   1.086       .  S
C1041      H1043   1.086       .  S
C1041      C1042   1.334       .  D
C1042      H1044   1.087       .  S
C1045      H1047   1.086       .  S
C1045      C1046   1.335       .  D
C1046      H1048   1.086       .  S
C1049      H1051   1.086       .  S
C1049      C1050   1.351       .  D
C1050      H1052   1.086       .  S
C1053      H1055   1.086       .  S
C1053      C1054   1.353       .  D
C1054      H1056   1.087       .  S
C1057      H1059   1.083       .  S
C1057      C1058   1.346       .  D
C1058      H1060   1.086       .  S
C1061      H1063   1.087       .  S
C1061      C1062   1.336       .  D
C1062      H1064   1.086       .  S
C1065      C1066   1.398       .  A
C1065      C1070   1.401       .  A
C1065      H1071   1.083       .  S
C1066      C1067   1.407       .  A
C1067      C1068   1.394       .  A
C1067      H1072   1.084       .  S
C1068      C1069   1.400       .  A
C1068      H2289   1.082       .  S
C1069      C1070   1.414       .  A
C1070      H1074   1.082       .  S
H1073      C2284   1.080       .  S
C1075      H1077   1.086       .  S
C1075      C1076   1.340       .  D
C1076      H1078   1.088       .  S
C1079      H1081   1.089       .  S
C1079      C1080   1.335       .  D
C1080      H1082   1.086       .  S
C1083      H1085   1.087       .  S
C1083      C1084   1.339       .  D
C1084      H1086   1.086       .  S
C1087      H1089   1.086       .  S
C1087      C1088   1.345       .  D
C1088      H1090   1.087       .  S
C1091      C1092   1.407       .  A
C1091      C1096   1.401       .  A
C1091      H1097   1.083       .  S
C1092      C1093   1.405       .  A
C1093      C1094   1.401       .  A
C1093      H1098   1.083       .  S
C1094      C1095   1.405       .  A
C1094      H1099   1.083       .  S
C1095      C1096   1.404       .  A
C1096      H1100   1.083       .  S
C1101      H1103   1.083       .  S
C1101      C1102   1.350       .  D
C1102      H1104   1.087       .  S
C1105      H1107   1.086       .  S
C1105      C1106   1.342       .  D
C1106      H1108   1.086       .  S
C1109      C1110   1.400       .  A
C1109      C1114   1.403       .  A
C1109      H1115   1.083       .  S
C1110      C1111   1.407       .  A
C1111      C1112   1.392       .  A
C1111      H1116   1.084   1_545  S
C1112      C1113   1.401       .  A
C1112      H1117   1.083       .  S
C1113      C1114   1.411       .  A
C1114      H1118   1.083       .  S
C1119      C1120   1.409       .  A
C1119      C1124   1.390       .  A
C1119      H1125   1.083       .  S
C1120      C1121   1.411       .  A
C1121      C1122   1.395       .  A
C1121      H1126   1.080       .  S
C1122      C1123   1.398       .  A
C1122      H1127   1.083       .  S
C1123      C1124   1.397       .  A
C1124      H1128   1.084       .  S
C1129      C1130   1.403       .  A
C1129      C1134   1.397       .  A
C1129      H1135   1.084       .  S
C1130      C1131   1.393       .  A
C1131      C1132   1.393       .  A
C1131      H1136   1.083       .  S
C1132      C1133   1.414       .  A
C1132      H1137   1.084       .  S
C1133      C1134   1.405       .  A
C1134      H1138   1.079       .  S
C1139      C1140   1.403       .  A
C1139      C1144   1.389       .  A
C1139      H1145   1.084       .  S
C1140      C1141   1.407       .  A
C1141      C1142   1.405       .  A
C1141      H1146   1.083       .  S
C1142      C1143   1.402       .  A
C1142      H1147   1.083       .  S
C1143      C1144   1.401       .  A
C1144      H1148   1.084   1_545  S
C1149      H1151   1.088       .  S
C1149      C1150   1.336       .  D
C1150      H1152   1.084       .  S
C1153      H1155   1.083       .  S
C1153      C1154   1.348       .  D
C1154      H1156   1.086       .  S
C1157      C1158   1.408       .  A
C1157      C1162   1.389       .  A
C1157      H1163   1.083       .  S
C1158      C1159   1.406       .  A
C1159      C1160   1.406       .  A
C1159      H1164   1.083       .  S
C1160      C1161   1.406       .  A
C1160      H1165   1.083       .  S
C1161      C1162   1.396       .  A
C1162      H2382   1.084       .  S
H1166      C2378   1.084       .  S
C1167      C1168   1.404       .  A
C1167      C1172   1.396       .  A
C1167      H1173   1.083       .  S
C1168      C1169   1.405       .  A
C1169      C1170   1.396       .  A
C1169      H1174   1.083       .  S
C1170      C1171   1.404       .  A
C1170      H1175   1.083       .  S
C1171      C1172   1.404       .  A
C1172      H2392   1.082       .  S
H1176      C2388   1.082   1_545  S
C1177      H1179   1.087       .  S
C1177      C1178   1.350       .  D
C1178      H1180   1.086       .  S
C1181      H1183   1.087       .  S
C1181      C1182   1.346       .  D
C1182      H1184   1.086       .  S
C1185      H1187   1.086       .  S
C1185      C1186   1.349       .  D
C1186      H1188   1.087       .  S
C1189      H1191   1.086       .  S
C1189      C1190   1.349       .  D
C1190      H1192   1.086       .  S
C1193      H1195   1.087       .  S
C1193      C1194   1.347       .  D
C1194      H1196   1.084       .  S
C1197      H1199   1.086       .  S
C1197      C1198   1.344       .  D
C1198      H1200   1.088       .  S
C1201      H1203   1.086       .  S
C1201      C1202   1.339       .  D
C1202      H1204   1.087       .  S
C1205      H1207   1.087       .  S
C1205      C1206   1.346       .  D
C1206      H1208   1.084       .  S
C1209      H1211   1.087       .  S
C1209      C1210   1.345       .  D
C1210      H1212   1.086       .  S
C1213      H1215   1.088       .  S
C1213      C1214   1.347       .  D
C1214      H1216   1.086       .  S
C1217      C1218   1.528       .  S
C1217      C1223   1.535       .  S
C1217      C1221   1.554       .  S
C1217      C1821   1.527       .  S
C1218      H1225   1.087       .  S
C1218      C1219   1.360       .  D
C1219      C1220   1.533       .  S
C1219      C1809   1.475       .  S
C1220      C1224   1.539       .  S
C1220      C1222   1.534       .  S
C1220      H1226   1.112       .  S
C1221      H1227   1.085       .  S
C1221      C1222   1.382       .  D
C1222      C1817   1.489       .  S
C1223      H1228   1.082       .  S
C1223      C1224   1.371       .  D
C1224      C1813   1.498       .  S
C1229      C1230   1.535       .  S
C1229      C1235   1.527       .  S
C1229      C1233   1.542       .  S
C1229      C1805   1.511       .  S
C1230      H1237   1.087       .  S
C1230      C1231   1.365       .  D
C1231      C1232   1.537       .  S
C1231      C1793   1.488       .  S
C1232      C1236   1.544       .  S
C1232      C1234   1.543       .  S
C1232      H1238   1.111       .  S
C1233      H1239   1.084       .  S
C1233      C1234   1.378       .  D
C1234      C1801   1.484       .  S
C1235      H1240   1.087       .  S
C1235      C1236   1.355       .  D
C1236      C1797   1.478       .  S
O1241      C1256   1.259       .  A
O1241     Al1249   1.904       .  S
C1242      O1252   1.263       .  A
C1242      O1243   1.258       .  A
C1242      C1789   1.475       .  S
O1243     Al1245   1.904       .  S
O1244      C1246   1.264       .  A
O1244     Al1245   1.910       .  S
Al1245     O1253   1.910       .  S
Al1245     O1255   1.907       .  S
Al1245     O1254   1.785       .  S
C1246      O1259   1.263       .  A
C1246      C1818   1.490       .  S
O1247      C1257   1.262       .  A
O1247     Al1249   1.908       .  S
O1248      C1261   1.261       .  A
O1248     Al1258   1.895       .  S
Al1249     O1262   1.905       .  S
Al1249     O1259   1.928       .  S
Al1249     O1254   1.794       .  S
O1250      C1257   1.262       .  A
O1250     Al1258   1.902       .  S
O1251      C1260   1.265       .  A
O1251     Al1258   1.925       .  S
O1252     Al1258   1.926       .  S
O1253      C1260   1.262       .  A
O1254     Al1258   1.786       .  S
O1255      C1256   1.262       .  A
C1256      C1802   1.480       .  S
C1257      C1766   1.473       .  S
C1260      C1785   1.483       .  S
C1261      O1262   1.261       .  A
C1261      C1776   1.474       .  S
O1263      C1278   1.258       .  A
O1263     Al1879   1.901       .  S
C1264      O1274   1.259       .  A
C1264      O1265   1.248       .  A
C1264      C1761   1.465       .  S
O1265     Al1875   1.868       .  S
O1266      C1268   1.268       .  A
O1266     Al1875   1.931       .  S
Al1267     O1873   1.913       .  S
Al1267     O1874   1.886       .  S
Al1267     O1275   1.896       .  S
Al1267     O1277   1.911       .  S
Al1267     O1276   1.773       .  S
C1268      O1281   1.262       .  A
C1268      C1822   1.485       .  S
O1269      C1279   1.271       .  A
O1269     Al1271   1.956   1_554  S
O1270      C1283   1.262       .  A
O1270     Al1280   1.895       .  S
Al1271     O1871   1.963       .  S
Al1271     O1892   1.909       .  S
Al1271     O1281   1.911   1_556  S
Al1271     O1884   1.798       .  S
O1272      C1279   1.260       .  A
O1272     Al1888   1.881       .  S
O1273      C1282   1.263       .  A
O1273     Al1280   1.925       .  S
O1274     Al1888   1.928       .  S
O1275      C1282   1.259       .  A
O1276     Al1879   1.797       .  S
O1276     Al1280   1.785       .  S
O1277      C1278   1.263       .  A
C1278      C1806   1.469       .  S
C1279      C1738   1.470       .  S
Al1280     O1880   1.909       .  S
Al1280     O1882   1.917       .  S
C1282      C1758   1.479       .  S
C1283      O1284   1.264       .  A
C1283      C1748   1.476       .  S
O1284     Al1879   1.912       .  S
C1285      C1286   1.540   1_455  S
C1285      C1291   1.520       .  S
C1285      C1289   1.533   1_455  S
C1285      C1728   1.509       .  S
C1287      C1288   1.530       .  S
C1287      C1751   1.468       .  S
C1288      C1292   1.545   1_655  S
C1288      H1294   1.108       .  S
C1289      H1295   1.085       .  S
C1289      C1290   1.371       .  D
C1290      C1779   1.484       .  S
C1291      H1296   1.086       .  S
C1292      C1718   1.490       .  S
O1297      C1312   1.263       .  A
O1297     Al1913   1.944       .  S
C1298      O1308   1.257       .  A
C1298      O1299   1.255       .  A
C1298      C1691   1.454       .  S
O1299     Al1301   1.899   1_554  S
O1300      C1302   1.259       .  A
O1300     Al1301   1.883   1_554  S
Al1301     O1917   1.903       .  S
Al1301     O1919   1.894       .  S
Al1301     O1310   1.783   1_556  S
C1302      O1315   1.266       .  A
C1302      C1713   1.470       .  S
O1303      C1313   1.270       .  A
O1303     Al1305   1.937       .  S
O1304      C1317   1.271       .  A
O1304     Al1922   1.921       .  S
Al1305     O1905   1.915   1_554  S
Al1305     O1926   1.896   1_554  S
Al1305     O1315   1.937       .  S
Al1305     O1310   1.793       .  S
O1306      C1313   1.259       .  A
O1306     Al1314   1.875   1_554  S
O1307      C1316   1.258       .  A
O1307     Al1922   1.898       .  S
O1308     Al1314   1.892   1_554  S
O1309      C1316   1.262       .  A
O1309     Al1909   1.915       .  S
O1310     Al1314   1.768   1_554  S
O1311      C1312   1.252       .  A
O1311     Al1909   1.869       .  S
C1312      C1709   1.477       .  S
C1313      C1700   1.484       .  S
Al1314     O1912   1.882       .  S
Al1314     O1915   1.921       .  S
C1316      C1696   1.476       .  S
C1317      O1318   1.267       .  A
C1317      C1731   1.464       .  S
O1318     Al1913   1.887       .  S
O1319      C1334   1.265       .  A
O1319     Al1327   1.943       .  S
C1320      O1330   1.264       .  A
C1320      O1321   1.254       .  A
C1320      C1669   1.468       .  S
O1321     Al1323   1.881       .  S
O1322      C1324   1.263       .  A
O1322     Al1323   1.895       .  S
Al1323     O1331   1.897       .  S
Al1323     O1333   1.885       .  S
Al1323     O1332   1.771       .  S
C1324      O1337   1.269       .  A
C1324      C1683   1.486       .  S
O1325      C1335   1.270       .  A
O1325     Al1327   1.917       .  S
O1326      C1339   1.262       .  A
O1326     Al1336   1.901       .  S
Al1327     O1340   1.905       .  S
Al1327     O1337   1.956       .  S
Al1327     O1332   1.784       .  S
O1328      C1335   1.265       .  A
O1328     Al1336   1.915       .  S
O1329      C1338   1.267       .  A
O1329     Al1336   1.934       .  S
O1330     Al1336   1.925       .  S
O1331      C1338   1.262       .  A
O1332     Al1336   1.776       .  S
O1333      C1334   1.260       .  A
C1334      C1687   1.488       .  S
C1335      C1674   1.481       .  S
C1338      C1665   1.479       .  S
C1339      O1340   1.259       .  A
C1339      C1721   1.463       .  S
C1341      C1342   1.541       .  S
C1341      C1347   1.531       .  S
C1341      C1345   1.534       .  S
C1341      C1688   1.516       .  S
C1342      H1349   1.086       .  S
C1342      C1343   1.376       .  D
C1343      C1344   1.547       .  S
C1343      C1658   1.494       .  S
C1344      C1348   1.536       .  S
C1344      C1346   1.545       .  S
C1344      H1350   1.109       .  S
C1345      H1351   1.086       .  S
C1345      C1346   1.372       .  D
C1346      C1710   1.474       .  S
C1347      H1352   1.088       .  S
C1347      C1348   1.354       .  D
C1348      C1661   1.487       .  S
C1353      C1354   1.531       .  S
C1353      C1359   1.533       .  S
C1353      C1357   1.544       .  S
C1353      C1684   1.520       .  S
C1354      H1361   1.086       .  S
C1354      C1355   1.367       .  D
C1355      C1356   1.529       .  S
C1355      C1649   1.481       .  S
C1356      C1360   1.531       .  S
C1356      C1358   1.545       .  S
C1356      H1362   1.107       .  S
C1357      H1363   1.085       .  S
C1357      C1358   1.377       .  D
C1358      C1714   1.488       .  S
C1359      H1364   1.084       .  S
C1359      C1360   1.367       .  D
C1360      C1653   1.489       .  S
C1365      C1366   1.529       .  S
C1365      C1371   1.551       .  S
C1365      C1369   1.530       .  S
C1365      C1741   1.528       .  S
C1367      C1368   1.539   1_655  S
C1367      C1769   1.470       .  S
C1368      C1372   1.533       .  S
C1368      H1374   1.109       .  S
C1369      H1375   1.086       .  S
C1369      C1370   1.367   1_655  D
C1370      C1677   1.496       .  S
C1372      C1703   1.476       .  S
O1377      C1392   1.259       .  A
O1377     Al1385   1.914       .  S
C1378      O1388   1.268       .  A
C1378      O1379   1.265       .  A
C1378      C1662   1.475       .  S
O1379     Al1381   1.912       .  S
O1380      C1382   1.258       .  A
O1380     Al1381   1.874       .  S
Al1381     O1389   1.922       .  S
Al1381     O1391   1.905       .  S
Al1381     O1390   1.783       .  S
C1382      O1395   1.262       .  A
C1382      C1642   1.473       .  S
O1383      C1393   1.258       .  A
O1383     Al1385   1.920       .  S
O1384      C1397   1.269       .  A
O1384     Al1394   1.906       .  S
Al1385     O1398   1.916       .  S
Al1385     O1395   1.916       .  S
Al1385     O1390   1.794       .  S
O1386      C1393   1.249       .  A
O1386     Al1394   1.866       .  S
O1387      C1396   1.253       .  A
O1387     Al1394   1.883       .  S
O1388     Al1394   1.928       .  S
O1389      C1396   1.262       .  A
O1390     Al1394   1.785       .  S
O1391      C1392   1.260       .  A
C1392      C1645   1.491       .  S
C1393      C1632   1.461       .  S
C1396      C1650   1.465       .  S
C1397      O1398   1.268       .  A
C1397      C1625   1.471       .  S
O1399      C1414   1.257       .  A
O1399     Al2015   1.907   1_554  S
C1400      O1410   1.262       .  A
C1400      O1401   1.262       .  A
C1400      C1657   1.486       .  S
O1401     Al2011   1.916       .  S
O1402      C1404   1.247       .  A
O1402     Al2011   1.840       .  S
Al1403     O2009   1.939   1_554  S
Al1403     O2010   1.844   1_554  S
Al1403     O1411   1.861       .  S
Al1403     O1413   1.908       .  S
Al1403     O1412   1.768       .  S
C1404      O1417   1.271       .  A
C1404      C1614   1.459       .  S
O1405      C1415   1.271       .  A
O1405     Al1407   1.925       .  S
O1406      C1419   1.268       .  A
O1406     Al1416   1.902       .  S
Al1407     O2007   1.934       .  S
Al1407     O2028   1.924       .  S
Al1407     O1417   1.970       .  S
Al1407     O2020   1.789       .  S
O1408      C1415   1.266       .  A
O1408     Al2024   1.913       .  S
O1409      C1418   1.264       .  A
O1409     Al1416   1.949       .  S
O1410     Al2024   1.917       .  S
O1411      C1418   1.249       .  A
O1412     Al2015   1.789   1_554  S
O1412     Al1416   1.784       .  S
O1413      C1414   1.261       .  A
C1414      C1617   1.476       .  S
C1415      C1594   1.477       .  S
Al1416     O2016   1.904   1_554  S
Al1416     O2018   1.921   1_554  S
C1418      C1654   1.465       .  S
C1419      O1420   1.268       .  A
C1419      C1604   1.465       .  S
O1420     Al2015   1.918   1_554  S
C1421      C1422   1.535       .  S
C1421      C1427   1.542       .  S
C1421      C1613   1.512       .  S
C1422      H1429   1.087       .  S
C1423      C1424   1.540       .  S
C1423      C1695   1.484       .  S
C1424      C1426   1.539       .  S
C1424      H1430   1.111       .  S
C1425      H1431   1.085       .  S
C1425      C1426   1.372       .  D
C1426      C1641   1.473       .  S
C1427      H1432   1.083       .  S
C1427      C1428   1.369       .  D
C1428      C1666   1.493       .  S
C1433      C1434   1.541       .  S
C1433      C1439   1.528       .  S
C1433      C1618   1.516       .  S
C1434      H1441   1.086       .  S
C1434      C1435   1.370       .  D
C1435      C1670   1.483       .  S
C1436      C1440   1.529       .  S
C1436      C1438   1.542       .  S
C1436      H1442   1.112       .  S
C1437      H1443   1.084       .  S
C1437      C1438   1.381   1_545  D
C1438      C1646   1.494       .  S
C1439      H1444   1.087       .  S
C1440      C1692   1.469       .  S
C1445      C1446   1.528       .  S
C1445      C1451   1.551       .  S
C1445      C1449   1.528       .  S
C1445      C1635   1.520       .  S
C1446      H1453   1.087       .  S
C1446      C1447   1.360       .  D
C1447      C1448   1.545       .  S
C1447      C1597   1.481       .  S
C1448      C1452   1.537       .  S
C1448      C1450   1.549       .  S
C1448      H1454   1.110       .  S
C1449      H1455   1.086       .  S
C1449      C1450   1.361       .  D
C1450      C1584   1.483       .  S
C1451      H1456   1.083       .  S
C1451      C1452   1.371       .  D
C1452      C1574   1.481       .  S
C1457      C1458   1.535       .  S
C1457      C1463   1.539       .  S
C1457      C1461   1.547       .  S
C1457      C1565   1.530       .  S
C1458      H1465   1.087       .  S
C1459      C1460   1.545       .  S
C1459      C1786   1.486       .  S
C1460      C1462   1.547       .  S
C1460      H1466   1.109       .  S
C1462      C1569   1.488       .  S
C1463      H1468   1.083       .  S
C1463      C1464   1.369       .  D
C1464      C1757   1.494       .  S
O1469      C1484   1.259       .  A
O1469     Al1477   1.928       .  S
C1470      O1480   1.259       .  A
C1470      O1471   1.262       .  A
C1470      C1794   1.476       .  S
O1471     Al1473   1.922       .  S
O1472      C1474   1.255       .  A
O1472     Al1473   1.854       .  S
Al1473     O1481   1.871       .  S
Al1473     O1483   1.901       .  S
Al1473     O1482   1.780       .  S
C1474      O1487   1.273       .  A
C1474      C1566   1.479       .  S
O1475      C1485   1.261       .  A
O1475     Al1477   1.914       .  S
O1476      C1489   1.263       .  A
O1476     Al1486   1.875       .  S
Al1477     O1490   1.934       .  S
Al1477     O1487   1.972       .  S
Al1477     O1482   1.801       .  S
O1478      C1485   1.256       .  A
O1478     Al1486   1.891       .  S
O1479      C1488   1.266       .  A
O1479     Al1486   1.952       .  S
O1480     Al1486   1.905       .  S
O1481      C1488   1.253       .  A
O1482     Al1486   1.795       .  S
O1483      C1484   1.256       .  A
C1484      C1561   1.489       .  S
C1485      C1577   1.476       .  S
C1488      C1814   1.475       .  S
C1489      O1490   1.270       .  A
C1489      C1552   1.472       .  S
C1491      C1492   1.537       .  S
C1491      C1497   1.533       .  S
C1491      C1495   1.552       .  S
C1491      C1562   1.531       .  S
C1492      H1499   1.083       .  S
C1492      C1493   1.369       .  D
C1493      C1762   1.486       .  S
C1494      C1498   1.540       .  S
C1494      C1496   1.548       .  S
C1494      H1500   1.111       .  S
C1496      C1548   1.499       .  S
C1497      H1502   1.086       .  S
C1498      C1790   1.491       .  S
O1503      C1518   1.262       .  A
O1503     Al1511   1.944       .  S
C1504      O1514   1.260       .  A
C1504      O1505   1.274       .  A
C1504      C1798   1.477       .  S
O1505     Al2115   1.952       .  S
O1506      C1508   1.260       .  A
O1506     Al2115   1.888       .  S
Al1507     O2113   1.893   1_554  S
Al1507     O2114   1.930   1_554  S
Al1507     O1515   1.920       .  S
Al1507     O1517   1.894       .  S
Al1507     O1516   1.787       .  S
C1508      O1521   1.266       .  A
C1508      C1570   1.485       .  S
O1509      C1519   1.263       .  A
O1509     Al2119   1.932       .  S
O1510      C1523   1.265       .  A
O1510     Al1520   1.906   1_554  S
Al1511     O2117   1.939   1_554  S
Al1511     O1524   1.907       .  S
Al1511     O2129   1.886   1_554  S
Al1511     O1516   1.801       .  S
O1512      C1519   1.251       .  A
O1512     Al2128   1.872       .  S
O1513      C1522   1.256       .  A
O1513     Al1520   1.873   1_554  S
O1514     Al2128   1.887       .  S
O1515      C1522   1.266       .  A
O1516     Al1520   1.786   1_554  S
O1517      C1518   1.253       .  A
C1518      C1547   1.498       .  S
C1519      C1587   1.471       .  S
Al1520     O2120   1.881       .  S
Al1520     O2122   1.903       .  S
O1521     Al2119   1.932       .  S
C1522      C1810   1.464       .  S
C1523      O1524   1.267       .  A
C1523      C1541   1.471       .  S
C1525      C1526   1.545       .  S
C1525      C1531   1.527       .  S
C1525      C1529   1.543       .  S
C1525      C1555   1.523       .  S
C1526      H1533   1.086       .  S
C1526      C1527   1.372       .  D
C1527      C1528   1.532       .  S
C1527      C1622   1.479       .  S
C1528      C1532   1.532       .  S
C1528      C1530   1.536       .  S
C1528      H1534   1.111       .  S
C1529      H1535   1.083       .  S
C1529      C1530   1.365       .  D
C1530      C1607   1.465       .  S
C1531      H1536   1.088       .  S
C1531      C1532   1.354       .  D
C1532      C1538   1.463       .  S
C1537      C1538   1.405       .  A
C1537      C1542   1.399       .  A
C1537      H1543   1.083       .  S
C1538      C1539   1.395       .  A
C1539      C1540   1.392       .  A
C1539      H1544   1.084       .  S
C1540      C1541   1.408       .  A
C1540      H1545   1.084       .  S
C1541      C1542   1.401       .  A
C1542      H1546   1.083       .  S
C1547      H1549   1.085       .  S
C1547      C1548   1.354       .  D
C1548      H1550   1.086       .  S
C1551      C1552   1.402       .  A
C1551      C1556   1.404       .  A
C1551      H1557   1.083       .  S
C1552      C1553   1.401       .  A
C1553      C1554   1.389       .  A
C1553      H1558   1.084       .  S
C1554      C1555   1.406       .  A
C1554      H1559   1.084       .  S
C1555      C1556   1.413       .  A
C1556      H1560   1.078       .  S
C1561      H1563   1.085       .  S
C1561      C1562   1.350       .  D
C1562      H1564   1.088       .  S
C1565      H1567   1.085       .  S
C1565      C1566   1.350       .  D
C1566      H1568   1.089       .  S
C1569      H1571   1.086       .  S
C1569      C1570   1.348       .  D
C1570      H1572   1.085       .  S
C1573      C1574   1.403       .  A
C1573      C1578   1.403       .  A
C1573      H1579   1.083       .  S
C1574      C1575   1.403       .  A
C1575      C1576   1.401       .  A
C1575      H1580   1.083       .  S
C1576      C1577   1.405       .  A
C1576      H1581   1.083       .  S
C1577      C1578   1.405       .  A
C1578      H1582   1.083       .  S
C1583      C1584   1.397       .  A
C1583      C1588   1.392       .  A
C1583      H1589   1.083       .  S
C1584      C1585   1.414       .  A
C1585      C1586   1.401       .  A
C1585      H1590   1.082       .  S
C1586      C1587   1.398       .  A
C1586      H1591   1.083       .  S
C1587      C1588   1.408       .  A
C1588      H1592   1.084       .  S
C1593      C1594   1.400       .  A
C1593      C1598   1.401       .  A
C1593      H1599   1.083       .  S
C1594      C1595   1.409       .  A
C1595      C1596   1.400       .  A
C1595      H1600   1.084       .  S
C1596      C1597   1.399       .  A
C1596      H1601   1.083       .  S
C1597      C1598   1.409       .  A
C1598      H1602   1.083       .  S
C1603      C1604   1.400       .  A
C1603      C1608   1.395       .  A
C1603      H1609   1.083       .  S
C1604      C1605   1.406       .  A
C1605      C1606   1.396       .  A
C1605      H1610   1.084       .  S
C1606      C1607   1.398       .  A
C1606      H1611   1.083       .  S
C1607      C1608   1.401       .  A
C1608      H1612   1.082       .  S
C1613      H1615   1.086       .  S
C1613      C1614   1.334       .  D
C1614      H1616   1.089       .  S
C1617      H1619   1.086       .  S
C1617      C1618   1.347       .  D
C1618      H1620   1.088       .  S
C1621      C1622   1.400       .  A
C1621      C1626   1.395       .  A
C1621      H1627   1.083       .  S
C1622      C1623   1.406       .  A
C1623      C1624   1.399       .  A
C1623      H1628   1.079       .  S
C1624      C1625   1.401       .  A
C1624      H1629   1.083       .  S
C1625      C1626   1.406       .  A
C1626      H1630   1.083       .  S
C1631      C1632   1.394       .  A
C1631      C1636   1.398       .  A
C1631      H1637   1.083       .  S
C1632      C1633   1.404       .  A
C1633      C1634   1.392       .  A
C1633      H1638   1.082       .  S
C1634      C1635   1.403       .  A
C1634      H1639   1.078       .  S
C1635      C1636   1.415       .  A
C1636      H1640   1.083       .  S
C1641      H1643   1.086       .  S
C1641      C1642   1.344       .  D
C1642      H1644   1.086       .  S
C1645      H1647   1.085       .  S
C1645      C1646   1.348       .  D
C1646      H1648   1.086       .  S
C1649      H1651   1.086       .  S
C1649      C1650   1.336       .  D
C1650      H1652   1.088       .  S
C1653      H1655   1.086       .  S
C1653      C1654   1.339       .  D
C1654      H1656   1.084       .  S
C1657      H1659   1.084       .  S
C1657      C1658   1.352       .  D
C1658      H1660   1.087       .  S
C1661      H1663   1.085       .  S
C1661      C1662   1.346       .  D
C1662      H1664   1.089       .  S
C1665      H1667   1.083       .  S
C1665      C1666   1.349       .  D
C1666      H1668   1.086       .  S
C1669      H1671   1.087       .  S
C1669      C1670   1.336       .  D
C1670      H1672   1.086       .  S
C1673      C1674   1.399       .  A
C1673      C1678   1.398       .  A
C1673      H1679   1.083       .  S
C1674      C1675   1.410       .  A
C1675      C1676   1.402       .  A
C1675      H1680   1.083       .  S
C1676      C1677   1.403       .  A
C1677      C1678   1.413       .  A
C1678      H1682   1.081       .  S
C1683      H1685   1.086       .  S
C1683      C1684   1.346       .  D
C1684      H1686   1.088       .  S
C1687      H1689   1.085       .  S
C1687      C1688   1.347       .  D
C1688      H1690   1.088       .  S
C1691      H1693   1.087       .  S
C1691      C1692   1.338       .  D
C1692      H1694   1.087       .  S
C1695      H1697   1.086       .  S
C1695      C1696   1.346       .  D
C1696      H1698   1.087       .  S
C1699      C1700   1.406       .  A
C1699      C1704   1.408       .  A
C1699      H1705   1.083       .  S
C1700      C1701   1.410       .  A
C1701      C1702   1.391       .  A
C1701      H1706   1.083       .  S
C1702      C1703   1.396       .  A
C1702      H1707   1.084   1_565  S
C1703      C1704   1.406       .  A
C1704      H1708   1.083       .  S
C1709      H1711   1.086       .  S
C1709      C1710   1.347       .  D
C1710      H1712   1.087       .  S
C1713      H1715   1.084       .  S
C1713      C1714   1.345       .  D
C1714      H1716   1.086       .  S
C1717      C1718   1.414       .  A
C1717      C1722   1.392       .  A
C1717      H1723   1.081       .  S
C1718      C1719   1.403       .  A
C1719      C1720   1.399       .  A
C1719      H1724   1.082       .  S
C1720      C1721   1.405       .  A
C1720      H1725   1.084       .  S
C1721      C1722   1.394       .  A
C1722      H1726   1.084       .  S
C1727      C1728   1.408       .  A
C1727      C1732   1.388       .  A
C1727      H1733   1.081       .  S
C1728      C1729   1.411       .  A
C1729      C1730   1.395       .  A
C1729      H1734   1.082       .  S
C1730      C1731   1.399       .  A
C1730      H1735   1.083       .  S
C1731      C1732   1.401       .  A
C1732      H1736   1.084       .  S
C1737      C1738   1.404       .  A
C1737      C1742   1.403       .  A
C1737      H1743   1.084       .  S
C1738      C1739   1.398       .  A
C1739      C1740   1.394       .  A
C1739      H1744   1.083       .  S
C1740      C1741   1.411       .  A
C1740      H1745   1.083       .  S
C1741      C1742   1.409       .  A
C1742      H1746   1.079       .  S
C1747      C1748   1.405       .  A
C1747      C1752   1.395       .  A
C1747      H1753   1.083       .  S
C1748      C1749   1.409       .  A
C1749      C1750   1.397       .  A
C1749      H1754   1.083       .  S
C1750      C1751   1.398       .  A
C1750      H1755   1.083       .  S
C1751      C1752   1.400       .  A
C1752      H1756   1.083       .  S
C1757      H1759   1.086       .  S
C1757      C1758   1.350       .  D
C1758      H1760   1.083       .  S
C1761      H1763   1.082       .  S
C1761      C1762   1.340       .  D
C1762      H1764   1.086       .  S
C1765      C1766   1.406       .  A
C1765      C1770   1.394       .  A
C1765      H1771   1.084       .  S
C1766      C1767   1.402       .  A
C1767      C1768   1.402       .  A
C1767      H1772   1.083       .  S
C1768      C1769   1.406       .  A
C1768      H1773   1.083       .  S
C1769      C1770   1.398       .  A
C1775      C1776   1.403       .  A
C1775      C1780   1.396       .  A
C1775      H1781   1.083       .  S
C1776      C1777   1.405       .  A
C1777      C1778   1.396       .  A
C1777      H1782   1.083       .  S
C1778      C1779   1.405       .  A
C1778      H1783   1.083       .  S
C1779      C1780   1.406       .  A
C1785      H1787   1.087       .  S
C1785      C1786   1.349       .  D
C1786      H1788   1.086       .  S
C1789      H1791   1.086       .  S
C1789      C1790   1.344       .  D
C1790      H1792   1.086       .  S
C1793      H1795   1.086       .  S
C1793      C1794   1.348       .  D
C1794      H1796   1.087       .  S
C1797      H1799   1.088       .  S
C1797      C1798   1.337       .  D
C1798      H1800   1.087       .  S
C1801      H1803   1.087       .  S
C1801      C1802   1.346       .  D
C1802      H1804   1.085       .  S
C1805      H1807   1.089       .  S
C1805      C1806   1.342       .  D
C1806      H1808   1.086       .  S
C1809      H1811   1.086       .  S
C1809      C1810   1.338       .  D
C1810      H1812   1.088       .  S
C1813      H1815   1.086       .  S
C1813      C1814   1.346       .  D
C1814      H1816   1.082       .  S
C1817      H1819   1.086       .  S
C1817      C1818   1.343       .  D
C1818      H1820   1.086       .  S
C1821      H1823   1.088       .  S
C1821      C1822   1.348       .  D
C1822      H1824   1.086       .  S
C1825      C1826   1.532       .  S
C1825      C1831   1.530       .  S
C1825      C1829   1.545       .  S
C1825      C2429   1.516       .  S
C1826      H1833   1.086       .  S
C1826      C1827   1.365       .  D
C1827      C1828   1.536       .  S
C1827      C2417   1.486       .  S
C1828      C1832   1.539       .  S
C1828      C1830   1.539       .  S
C1828      H1834   1.111       .  S
C1829      H1835   1.085       .  S
C1829      C1830   1.378       .  D
C1830      C2425   1.485       .  S
C1831      H1836   1.084       .  S
C1831      C1832   1.365       .  D
C1832      C2421   1.490       .  S
C1837      C1838   1.549       .  S
C1837      C1843   1.535       .  S
C1837      C1841   1.530       .  S
C1837      C2413   1.518       .  S
C1838      H1845   1.086       .  S
C1838      C1839   1.370       .  D
C1839      C1840   1.531       .  S
C1839      C2401   1.485       .  S
C1840      C1844   1.534       .  S
C1840      C1842   1.544       .  S
C1840      H1846   1.112       .  S
C1841      H1847   1.084       .  S
C1841      C1842   1.373       .  D
C1842      C2409   1.476       .  S
C1843      H1848   1.087       .  S
C1843      C1844   1.358       .  D
C1844      C2405   1.479       .  S
O1849      C1864   1.258       .  A
O1849     Al1857   1.898       .  S
C1850      O1860   1.264       .  A
C1850      O1851   1.257       .  A
C1850      C2397   1.473       .  S
O1851     Al1853   1.900       .  S
O1852      C1854   1.262       .  A
O1852     Al1853   1.890       .  S
Al1853     O1861   1.893       .  S
Al1853     O1863   1.895       .  S
Al1853     O1862   1.782       .  S
C1854      O1867   1.266       .  A
C1854      C2426   1.485       .  S
O1855      C1865   1.263       .  A
O1855     Al1857   1.905       .  S
O1856      C1869   1.260       .  A
O1856     Al1866   1.893       .  S
Al1857     O1870   1.908       .  S
Al1857     O1867   1.939       .  S
Al1857     O1862   1.789       .  S
O1858      C1865   1.265       .  A
O1858     Al1866   1.914       .  S
O1859      C1868   1.267       .  A
O1859     Al1866   1.934       .  S
O1860     Al1866   1.927       .  S
O1861      C1868   1.259       .  A
O1862     Al1866   1.781       .  S
O1863      C1864   1.260       .  A
C1864      C2410   1.469       .  S
C1865      C2374   1.475       .  S
C1868      C2393   1.474       .  S
C1869      O1870   1.263       .  A
C1869      C2384   1.473       .  S
O1871      C1886   1.269       .  A
C1872      O1882   1.264       .  A
C1872      O1873   1.262       .  A
C1872      C2369   1.480       .  S
O1874      C1876   1.260       .  A
Al1875     O1883   1.954   1_554  S
Al1875     O1885   1.843   1_554  S
Al1875     O1884   1.767   1_554  S
C1876      O1889   1.263       .  A
C1876      C2430   1.479       .  S
O1877      C1887   1.264       .  A
O1877     Al1879   1.909       .  S
O1878      C1891   1.262       .  A
O1878     Al1888   1.895   1_556  S
Al1879     O1889   1.938       .  S
O1880      C1887   1.264       .  A
O1881      C1890   1.257       .  A
O1881     Al1888   1.882   1_556  S
O1883      C1890   1.273       .  A
O1884     Al1888   1.780   1_556  S
O1885      C1886   1.248       .  A
C1886      C2414   1.470       .  S
C1887      C2346   1.477       .  S
C1890      C2366   1.484       .  S
C1891      O1892   1.263       .  A
C1891      C2356   1.468       .  S
C1893      C1894   1.537   1_465  S
C1893      C1899   1.514       .  S
C1893      C1897   1.533   1_455  S
C1893      C2336   1.509       .  S
C1895      C1896   1.536       .  S
C1895      C2359   1.469       .  S
C1896      C1900   1.538   1_655  S
C1896      H1902   1.110       .  S
C1897      H1903   1.084       .  S
C1897      C1898   1.369       .  D
C1898      C2387   1.481       .  S
C1899      H1904   1.088       .  S
C1900      C2326   1.468       .  S
O1905      C1920   1.261       .  A
C1906      O1916   1.261       .  A
C1906      O1907   1.253       .  A
C1906      C2299   1.458       .  S
O1907     Al1909   1.876       .  S
O1908      C1910   1.270       .  A
O1908     Al1909   1.933       .  S
Al1909     O1918   1.777       .  S
C1910      O1923   1.265       .  A
C1910      C2321   1.470       .  S
O1911      C1921   1.261       .  A
O1911     Al1913   1.933       .  S
O1912      C1925   1.261       .  A
Al1913     O1923   1.892       .  S
Al1913     O1918   1.793       .  S
O1914      C1921   1.254       .  A
O1914     Al1922   1.896       .  S
O1915      C1924   1.266       .  A
O1916     Al1922   1.898       .  S
O1917      C1924   1.261       .  A
O1918     Al1922   1.774       .  S
O1919      C1920   1.259       .  A
C1920      C2317   1.477       .  S
C1921      C2308   1.479       .  S
C1924      C2304   1.480       .  S
C1925      O1926   1.258       .  A
C1925      C2339   1.451       .  S
O1927      C1942   1.264       .  A
O1927     Al1935   1.923       .  S
C1928      O1938   1.260       .  A
C1928      O1929   1.255       .  A
C1928      C2277   1.474       .  S
O1929     Al1931   1.893       .  S
O1930      C1932   1.259       .  A
O1930     Al1931   1.884       .  S
Al1931     O1939   1.887       .  S
Al1931     O1941   1.907       .  S
Al1931     O1940   1.780       .  S
C1932      O1945   1.261       .  A
C1932      C2291   1.479       .  S
O1933      C1943   1.272       .  A
O1933     Al1935   1.930       .  S
O1934      C1947   1.260       .  A
O1934     Al1944   1.893       .  S
Al1935     O1948   1.888       .  S
Al1935     O1945   1.938       .  S
Al1935     O1940   1.794       .  S
O1936      C1943   1.265       .  A
O1936     Al1944   1.901       .  S
O1937      C1946   1.265       .  A
O1937     Al1944   1.933       .  S
O1938     Al1944   1.908       .  S
O1939      C1946   1.259       .  A
O1940     Al1944   1.783       .  S
O1941      C1942   1.261       .  A
C1942      C2295   1.472       .  S
C1943      C2282   1.480       .  S
C1946      C2273   1.480       .  S
C1947      O1948   1.255       .  A
C1947      C2329   1.467       .  S
C1949      C1950   1.553       .  S
C1949      C1955   1.527       .  S
C1949      C1953   1.533       .  S
C1949      C2296   1.521       .  S
C1950      H1957   1.083       .  S
C1950      C1951   1.377       .  D
C1951      C1952   1.542       .  S
C1951      C2266   1.497       .  S
C1952      C1956   1.549       .  S
C1952      C1954   1.545       .  S
C1952      H1958   1.111       .  S
C1953      H1959   1.084       .  S
C1953      C1954   1.369       .  D
C1954      C2318   1.486       .  S
C1955      H1960   1.087       .  S
C1955      C1956   1.357       .  D
C1956      C2269   1.497       .  S
C1961      C1962   1.530       .  S
C1961      C1967   1.535       .  S
C1961      C1965   1.539       .  S
C1961      C2292   1.511       .  S
C1962      H1969   1.087       .  S
C1962      C1963   1.363       .  D
C1963      C1964   1.530       .  S
C1963      C2257   1.465       .  S
C1964      C1968   1.520       .  S
C1964      C1966   1.545       .  S
C1964      H1970   1.110       .  S
C1965      H1971   1.086       .  S
C1965      C1966   1.373       .  D
C1966      C2322   1.482       .  S
C1967      H1972   1.085       .  S
C1967      C1968   1.365       .  D
C1968      C2261   1.476       .  S
C1973      C1974   1.520       .  S
C1973      C1979   1.548   1_655  S
C1973      C1977   1.540   1_655  S
C1973      C2349   1.524       .  S
C1975      C1976   1.541   1_655  S
C1975      C2377   1.470       .  S
C1976      C1980   1.540       .  S
C1976      H1982   1.110       .  S
C1977      H1983   1.083       .  S
C1977      C1978   1.372       .  D
C1978      C2285   1.501       .  S
C1980      C2311   1.484       .  S
O1985      C2000   1.264       .  A
O1985     Al1993   1.895       .  S
C1986      O1996   1.260       .  A
C1986      O1987   1.265       .  A
C1986      C2270   1.483       .  S
O1987     Al1989   1.930       .  S
O1988      C1990   1.246       .  A
O1988     Al1989   1.855       .  S
Al1989     O1997   1.870       .  S
Al1989     O1999   1.951       .  S
Al1989     O1998   1.784       .  S
C1990      O2003   1.256       .  A
C1990      C2250   1.476       .  S
O1991      C2001   1.269       .  A
O1991     Al1993   1.904       .  S
O1992      C2005   1.259       .  A
O1992     Al2002   1.912       .  S
Al1993     O2006   1.903       .  S
Al1993     O2003   1.927       .  S
Al1993     O1998   1.801       .  S
O1994      C2001   1.267       .  A
O1994     Al2002   1.909       .  S
O1995      C2004   1.258       .  A
O1995     Al2002   1.898       .  S
O1996     Al2002   1.901       .  S
O1997      C2004   1.249       .  A
O1998     Al2002   1.786       .  S
O1999      C2000   1.276       .  A
C2000      C2253   1.491       .  S
C2001      C2240   1.473       .  S
C2004      C2258   1.464       .  S
C2005      O2006   1.257       .  A
C2005      C2233   1.475       .  S
O2007      C2022   1.265       .  A
C2008      O2018   1.267       .  A
C2008      O2009   1.269       .  A
C2008      C2265   1.491       .  S
O2010      C2012   1.251       .  A
Al2011     O2019   1.846       .  S
Al2011     O2021   1.921       .  S
Al2011     O2020   1.766       .  S
C2012      O2025   1.266       .  A
C2012      C2222   1.458       .  S
O2013      C2023   1.260       .  A
O2013     Al2015   1.906       .  S
O2014      C2027   1.262       .  A
O2014     Al2024   1.894       .  S
Al2015     O2025   1.939       .  S
O2016      C2023   1.260       .  A
O2017      C2026   1.266       .  A
O2017     Al2024   1.937       .  S
O2019      C2026   1.250       .  A
O2020     Al2024   1.773       .  S
O2021      C2022   1.265       .  A
C2022      C2225   1.483       .  S
C2023      C2202   1.472       .  S
C2026      C2262   1.456       .  S
C2027      O2028   1.265       .  A
C2027      C2212   1.476       .  S
C2029      C2030   1.532       .  S
C2029      C2035   1.539       .  S
C2029      C2221   1.510       .  S
C2030      H2037   1.087       .  S
C2031      C2032   1.535       .  S
C2031      C2303   1.473       .  S
C2032      C2034   1.542       .  S
C2032      H2038   1.111       .  S
C2033      H2039   1.085       .  S
C2033      C2034   1.372       .  D
C2034      C2249   1.471       .  S
C2035      H2040   1.083       .  S
C2035      C2036   1.369       .  D
C2036      C2274   1.498       .  S
C2041      C2042   1.543       .  S
C2041      C2047   1.529       .  S
C2041      C2226   1.531       .  S
C2042      H2049   1.086       .  S
C2042      C2043   1.369       .  D
C2043      C2278   1.482       .  S
C2044      C2048   1.527       .  S
C2044      C2046   1.540       .  S
C2044      H2050   1.112       .  S
C2045      H2051   1.084       .  S
C2045      C2046   1.386   1_545  D
C2046      C2254   1.496       .  S
C2047      H2052   1.087       .  S
C2048      C2300   1.468       .  S
C2053      C2054   1.521       .  S
C2053      C2059   1.543       .  S
C2053      C2057   1.537       .  S
C2053      C2243   1.518       .  S
C2054      H2061   1.088       .  S
C2054      C2055   1.355       .  D
C2055      C2056   1.542       .  S
C2055      C2205   1.470       .  S
C2056      C2060   1.537       .  S
C2056      C2058   1.547       .  S
C2056      H2062   1.111       .  S
C2057      H2063   1.084       .  S
C2057      C2058   1.365       .  D
C2058      C2192   1.486       .  S
C2059      H2064   1.086       .  S
C2059      C2060   1.371       .  D
C2060      C2182   1.475       .  S
C2065      C2066   1.528       .  S
C2065      C2071   1.536       .  S
C2065      C2069   1.539       .  S
C2065      C2173   1.520       .  S
C2066      H2073   1.088       .  S
C2067      C2068   1.543       .  S
C2067      C2394   1.483       .  S
C2068      C2070   1.542       .  S
C2068      H2074   1.108       .  S
C2070      C2177   1.484       .  S
C2071      H2076   1.087       .  S
C2071      C2072   1.361       .  D
C2072      C2365   1.495       .  S
O2077      C2092   1.260       .  A
O2077     Al2085   1.933       .  S
C2078      O2088   1.261       .  A
C2078      O2079   1.262       .  A
C2078      C2402   1.480       .  S
O2079     Al2081   1.922       .  S
O2080      C2082   1.255       .  A
O2080     Al2081   1.851       .  S
Al2081     O2089   1.882       .  S
Al2081     O2091   1.879       .  S
Al2081     O2090   1.781       .  S
C2082      O2095   1.268       .  A
C2082      C2174   1.467       .  S
O2083      C2093   1.263       .  A
O2083     Al2085   1.929       .  S
O2084      C2097   1.266       .  A
O2084     Al2094   1.884       .  S
Al2085     O2098   1.917       .  S
Al2085     O2095   1.948       .  S
Al2085     O2090   1.805       .  S
O2086      C2093   1.252       .  A
O2086     Al2094   1.863       .  S
O2087      C2096   1.261       .  A
O2087     Al2094   1.931       .  S
O2088     Al2094   1.904       .  S
O2089      C2096   1.254       .  A
O2090     Al2094   1.789       .  S
O2091      C2092   1.253       .  A
C2092      C2169   1.483       .  S
C2093      C2185   1.481       .  S
C2096      C2422   1.470       .  S
C2097      O2098   1.267       .  A
C2097      C2160   1.463       .  S
C2099      C2100   1.540       .  S
C2099      C2105   1.530       .  S
C2099      C2103   1.542       .  S
C2099      C2170   1.524       .  S
C2100      H2107   1.085       .  S
C2100      C2101   1.368       .  D
C2101      C2370   1.497       .  S
C2102      C2106   1.540       .  S
C2102      C2104   1.547       .  S
C2102      H2108   1.111       .  S
C2104      C2156   1.497       .  S
C2105      H2110   1.086       .  S
C2106      C2398   1.488       .  S
O2111      C2126   1.262       .  A
O2111     Al2119   1.913       .  S
C2112      O2122   1.256       .  A
C2112      O2113   1.253       .  A
C2112      C2406   1.475       .  S
O2114      C2116   1.272       .  A
Al2115     O2123   1.922       .  S
Al2115     O2125   1.921       .  S
Al2115     O2124   1.782       .  S
C2116      O2129   1.262       .  A
C2116      C2178   1.476       .  S
O2117      C2127   1.264       .  A
O2118      C2131   1.266       .  A
O2118     Al2128   1.881       .  S
Al2119     O2132   1.950       .  S
Al2119     O2124   1.789       .  S
O2120      C2127   1.256       .  A
O2121      C2130   1.254       .  A
O2121     Al2128   1.901       .  S
O2123      C2130   1.259       .  A
O2124     Al2128   1.776       .  S
O2125      C2126   1.265       .  A
C2126      C2155   1.491       .  S
C2127      C2195   1.480       .  S
C2130      C2418   1.470       .  S
C2131      O2132   1.272       .  A
C2131      C2149   1.479       .  S
C2133      C2134   1.544       .  S
C2133      C2139   1.518       .  S
C2133      C2137   1.533       .  S
C2133      C2163   1.517       .  S
C2134      H2141   1.085       .  S
C2134      C2135   1.376       .  D
C2135      C2136   1.539       .  S
C2135      C2230   1.490       .  S
C2136      C2140   1.544       .  S
C2136      C2138   1.548       .  S
C2136      H2142   1.110       .  S
C2137      H2143   1.085       .  S
C2137      C2138   1.363       .  D
C2138      C2215   1.472       .  S
C2139      H2144   1.088       .  S
C2139      C2140   1.355       .  D
C2140      C2146   1.478       .  S
C2145      C2146   1.405       .  A
C2145      C2150   1.408       .  A
C2145      H2151   1.083       .  S
C2146      C2147   1.402       .  A
C2147      C2148   1.388       .  A
C2147      H2152   1.084       .  S
C2148      C2149   1.404       .  A
C2148      H2153   1.083       .  S
C2149      C2150   1.408       .  A
C2150      H2154   1.083       .  S
C2155      H2157   1.084       .  S
C2155      C2156   1.350       .  D
C2156      H2158   1.086       .  S
C2159      C2160   1.398       .  A
C2159      C2164   1.400       .  A
C2159      H2165   1.083       .  S
C2160      C2161   1.399       .  A
C2161      C2162   1.390       .  A
C2161      H2166   1.084       .  S
C2162      C2163   1.407       .  A
C2162      H2167   1.082       .  S
C2163      C2164   1.415       .  A
C2164      H2168   1.080       .  S
C2169      H2171   1.085       .  S
C2169      C2170   1.350       .  D
C2170      H2172   1.089       .  S
C2173      H2175   1.086       .  S
C2173      C2174   1.347       .  D
C2174      H2176   1.089       .  S
C2177      H2179   1.087       .  S
C2177      C2178   1.342       .  D
C2178      H2180   1.085       .  S
C2181      C2182   1.404       .  A
C2181      C2186   1.407       .  A
C2181      H2187   1.083       .  S
C2182      C2183   1.397       .  A
C2183      C2184   1.392       .  A
C2183      H2188   1.084       .  S
C2184      C2185   1.408       .  A
C2184      H2189   1.084       .  S
C2185      C2186   1.407       .  A
C2186      H2190   1.083       .  S
C2191      C2192   1.402       .  A
C2191      C2196   1.396       .  A
C2191      H2197   1.081       .  S
C2192      C2193   1.407       .  A
C2193      C2194   1.400       .  A
C2193      H2198   1.083       .  S
C2194      C2195   1.405       .  A
C2194      H2199   1.083       .  S
C2195      C2196   1.407       .  A
C2196      H2200   1.083       .  S
C2201      C2202   1.401       .  A
C2201      C2206   1.401       .  A
C2201      H2207   1.083       .  S
C2202      C2203   1.407       .  A
C2203      C2204   1.394       .  A
C2203      H2208   1.084       .  S
C2204      C2205   1.397       .  A
C2204      H2209   1.084       .  S
C2205      C2206   1.408       .  A
C2206      H2210   1.083       .  S
C2211      C2212   1.404       .  A
C2211      C2216   1.395       .  A
C2211      H2217   1.083       .  S
C2212      C2213   1.408       .  A
C2213      C2214   1.398       .  A
C2213      H2218   1.083       .  S
C2214      C2215   1.400       .  A
C2214      H2219   1.083       .  S
C2215      C2216   1.400       .  A
C2216      H2220   1.080       .  S
C2221      H2223   1.086       .  S
C2221      C2222   1.340       .  D
C2222      H2224   1.089       .  S
C2225      H2227   1.088       .  S
C2225      C2226   1.356       .  D
C2226      H2228   1.085       .  S
C2229      C2230   1.402       .  A
C2229      C2234   1.394       .  A
C2229      H2235   1.083       .  S
C2230      C2231   1.410       .  A
C2231      C2232   1.402       .  A
C2231      H2236   1.079       .  S
C2232      C2233   1.401       .  A
C2232      H2237   1.083       .  S
C2233      C2234   1.406       .  A
C2234      H2238   1.084       .  S
C2239      C2240   1.399       .  A
C2239      C2244   1.396       .  A
C2239      H2245   1.083       .  S
C2240      C2241   1.406       .  A
C2241      C2242   1.393       .  A
C2241      H2246   1.083       .  S
C2242      C2243   1.405       .  A
C2242      H2247   1.083       .  S
C2243      C2244   1.413       .  A
C2244      H2248   1.080       .  S
C2249      H2251   1.087       .  S
C2249      C2250   1.347       .  D
C2250      H2252   1.086       .  S
C2253      H2255   1.085       .  S
C2253      C2254   1.344       .  D
C2254      H2256   1.086       .  S
C2257      H2259   1.086       .  S
C2257      C2258   1.332       .  D
C2258      H2260   1.087       .  S
C2261      H2263   1.086       .  S
C2261      C2262   1.335       .  D
C2262      H2264   1.085       .  S
C2265      H2267   1.087       .  S
C2265      C2266   1.350       .  D
C2266      H2268   1.086       .  S
C2269      H2271   1.086       .  S
C2269      C2270   1.353       .  D
C2270      H2272   1.087       .  S
C2273      H2275   1.082       .  S
C2273      C2274   1.350       .  D
C2274      H2276   1.086       .  S
C2277      H2279   1.086       .  S
C2277      C2278   1.340       .  D
C2278      H2280   1.086       .  S
C2281      C2282   1.400       .  A
C2281      C2286   1.405       .  A
C2281      H2287   1.083       .  S
C2282      C2283   1.406       .  A
C2283      C2284   1.395       .  A
C2283      H2288   1.084       .  S
C2284      C2285   1.404       .  A
C2285      C2286   1.416       .  A
C2286      H2290   1.080       .  S
C2291      H2293   1.086       .  S
C2291      C2292   1.341       .  D
C2292      H2294   1.088       .  S
C2295      H2297   1.082       .  S
C2295      C2296   1.338       .  D
C2296      H2298   1.089       .  S
C2299      H2301   1.087       .  S
C2299      C2300   1.338       .  D
C2300      H2302   1.087       .  S
C2303      H2305   1.086       .  S
C2303      C2304   1.343       .  D
C2304      H2306   1.087       .  S
C2307      C2308   1.406       .  A
C2307      C2312   1.398       .  A
C2307      H2313   1.083       .  S
C2308      C2309   1.405       .  A
C2309      C2310   1.402       .  A
C2309      H2314   1.083       .  S
C2310      C2311   1.405       .  A
C2310      H2315   1.083       .  S
C2311      C2312   1.403       .  A
C2312      H2316   1.083       .  S
C2317      H2319   1.084       .  S
C2317      C2318   1.352       .  D
C2318      H2320   1.087       .  S
C2321      H2323   1.086       .  S
C2321      C2322   1.346       .  D
C2322      H2324   1.086       .  S
C2325      C2326   1.399       .  A
C2325      C2330   1.399       .  A
C2325      H2331   1.083       .  S
C2326      C2327   1.405       .  A
C2327      C2328   1.389       .  A
C2327      H2332   1.084       .  S
C2328      C2329   1.399       .  A
C2328      H2333   1.083       .  S
C2329      C2330   1.408       .  A
C2330      H2334   1.083       .  S
C2335      C2336   1.407       .  A
C2335      C2340   1.387       .  A
C2335      H2341   1.083       .  S
C2336      C2337   1.414       .  A
C2337      C2338   1.396       .  A
C2337      H2342   1.080       .  S
C2338      C2339   1.395       .  A
C2338      H2343   1.083       .  S
C2339      C2340   1.398       .  A
C2340      H2344   1.084       .  S
C2345      C2346   1.405       .  A
C2345      C2350   1.394       .  A
C2345      H2351   1.083       .  S
C2346      C2347   1.400       .  A
C2347      C2348   1.401       .  A
C2347      H2352   1.083       .  S
C2348      C2349   1.415       .  A
C2348      H2353   1.081       .  S
C2349      C2350   1.407       .  A
C2350      H2354   1.081       .  S
C2355      C2356   1.402       .  A
C2355      C2360   1.387       .  A
C2355      H2361   1.084       .  S
C2356      C2357   1.406       .  A
C2357      C2358   1.404       .  A
C2357      H2362   1.083       .  S
C2358      C2359   1.403       .  A
C2358      H2363   1.083       .  S
C2359      C2360   1.399       .  A
C2360      H2364   1.084       .  S
C2365      H2367   1.088       .  S
C2365      C2366   1.342       .  D
C2366      H2368   1.084       .  S
C2369      H2371   1.084       .  S
C2369      C2370   1.348       .  D
C2370      H2372   1.086       .  S
C2373      C2374   1.407       .  A
C2373      C2378   1.396       .  A
C2373      H2379   1.084       .  S
C2374      C2375   1.402       .  A
C2375      C2376   1.402       .  A
C2375      H2380   1.083       .  S
C2376      C2377   1.407       .  A
C2376      H2381   1.083       .  S
C2377      C2378   1.398       .  A
C2383      C2384   1.405       .  A
C2383      C2388   1.398       .  A
C2383      H2389   1.083       .  S
C2384      C2385   1.403       .  A
C2385      C2386   1.393       .  A
C2385      H2390   1.083       .  S
C2386      C2387   1.404       .  A
C2386      H2391   1.083       .  S
C2387      C2388   1.405       .  A
C2393      H2395   1.087       .  S
C2393      C2394   1.346       .  D
C2394      H2396   1.086       .  S
C2397      H2399   1.087       .  S
C2397      C2398   1.342       .  D
C2398      H2400   1.086       .  S
C2401      H2403   1.086       .  S
C2401      C2402   1.344       .  D
C2402      H2404   1.087       .  S
C2405      H2407   1.086       .  S
C2405      C2406   1.343       .  D
C2406      H2408   1.087       .  S
C2409      H2411   1.087       .  S
C2409      C2410   1.345       .  D
C2410      H2412   1.084       .  S
C2413      H2415   1.086       .  S
C2413      C2414   1.339       .  D
C2414      H2416   1.089       .  S
C2417      H2419   1.086       .  S
C2417      C2418   1.341       .  D
C2418      H2420   1.086       .  S
C2421      H2423   1.086       .  S
C2421      C2422   1.347       .  D
C2422      H2424   1.083       .  S
C2425      H2427   1.086       .  S
C2425      C2426   1.345       .  D
C2426      H2428   1.085       .  S
C2429      H2431   1.089       .  S
C2429      C2430   1.343       .  D
C2430      H2432   1.086       .  S
