geometry optimzed in LAMMPS
_audit_creation_date              2020-11-30 
_audit_creation_method            'lammps2cif' 
_symmetry_space_group_name_H-M    'P1' 
_symmetry_Int_Tables_number       1 
_symmetry_cell_setting            triclinic 
loop_ 
_symmetry_equiv_pos_as_xyz 
  x,y,z 
_cell_length_a                    35.537282 
_cell_length_b                    36.073448635551806 
_cell_length_c                    35.91793251343325 
_cell_angle_alpha                 91.49346984818848 
_cell_angle_beta                  87.50920946496925 
_cell_angle_gamma                 119.88905041657972 
loop_ 
_atom_site_label 
_atom_site_type_symbol 
_atom_site_fract_x 
_atom_site_fract_y 
_atom_site_fract_z 
_atom_site_charge 
C1          C  0.37001985  0.25346986  0.03860451     0.87200
C2          C  0.41521853  0.29299114  0.03942632    -0.53100
C3          C  0.43551723  0.32477887  0.34170467     0.10100
C4          C  0.39604605  0.30801707  0.31540626     0.21000
C5          C  0.33903072  0.27018985  0.03395794    -0.53800
C6          C  0.35778971  0.30414790  0.34133072     0.10200
C7          C  0.36849819  0.23078644  0.00177673    -0.53300
C8          C  0.38453401  0.26077684  0.30588709     0.10800
H9          H  0.43857074  0.29715870  0.05997567     0.15300
H10         H  0.40258432  0.32826158  0.29054169     0.01000
H11         H  0.31097232  0.25935447  0.05255545     0.15600
H12         H  0.36718050  0.20288243  0.33577601     0.15400
C13         C  0.04297139  0.35204809  0.29754854     0.87200
C14         C  0.49553008  0.34500682  0.29638229    -0.53100
C15         C  0.47279398  0.34404194  0.99738276     0.10100
C16         C  0.01305797  0.36790043  0.02044075     0.21000
C17         C  0.06297159  0.39970552  0.30298825    -0.53800
C18         C  0.04518916  0.40591679  0.99485820     0.10200
C19         C  0.05421797  0.33548223  0.33223893    -0.53300
C20         C  0.03680208  0.34231979  0.02685171     0.10800
H21         H  0.47332838  0.32335885  0.27588847     0.15300
H22         H  0.00291615  0.37795179  0.04668514     0.01000
H23         H  0.08723662  0.42287489  0.28374969     0.15600
H24         H  0.06693861  0.31337966  0.99305532     0.15400
C25         C  0.13575587  0.01164852  0.04434659     0.87200
C26         C  0.11652633  0.04048633  0.04116074    -0.53100
C27         C  0.08912229  0.02763418  0.34984548     0.10100
C28         C  0.08862028  0.49414569  0.32100547     0.21000
C29         C  0.10058391  0.45849109  0.03570380    -0.53800
C30         C  0.07603228  0.45573289  0.34725344     0.10200
C31         C  0.16234302  0.01765375  0.00790568    -0.53300
C32         C  0.13679501  0.51027074  0.30867884     0.10800
H33         H  0.11990150  0.06236938  0.06361373     0.15300
H34         H  0.06658427  0.48639415  0.29748978     0.01000
H35         H  0.09775730  0.43344378  0.05370816     0.15600
H36         H  0.19544341  0.02646394  0.33648238     0.15400
C37         C  0.05031919  0.10973495  0.02745276     0.87200
C38         C  0.49161303  0.05884837  0.03649666    -0.53100
C39         C  0.49108607  0.03891190  0.33472988     0.10100
C40         C  0.03726676  0.05186446  0.31637440     0.21000
C41         C  0.08476480  0.09675178  0.02536753    -0.53800
C42         C  0.06439056  0.05087787  0.34859984     0.10200
C43         C  0.05195691  0.12626374  0.98878318    -0.53300
C44         C  0.05683744  0.09987699  0.30722951     0.10800
H45         H  0.46362055  0.05525330  0.05271418     0.15300
H46         H  0.03536542  0.03183867  0.29177009     0.01000
H47         H  0.11198415  0.11132751  0.04360519     0.15600
H48         H  0.07178695  0.15857279  0.33590708     0.15400
C49         C  0.39003883  0.00598432  0.28553414     0.87200
C50         C  0.43824698  0.02245399  0.28867484    -0.53100
C51         C  0.44666044  0.00794169  0.99054729     0.10100
C52         C  0.40774513  0.47855314  0.01194621     0.21000
C53         C  0.37101318  0.45959850  0.28690147    -0.53800
C54         C  0.37737905  0.44229979  0.98496257     0.10200
C55         C  0.37539685  0.01921265  0.32238827    -0.53300
C56         C  0.38226288  0.00473275  0.02220735     0.10800
H57         H  0.46268789  0.04687295  0.27032686     0.15300
H58         H  0.41536261  0.46663792  0.03713366     0.01000
H59         H  0.34791774  0.43868508  0.26657399     0.15600
H60         H  0.36029249  0.03969773  0.99045133     0.15400
C61         C  0.27901309  0.35071523  0.03176896     0.87200
C62         C  0.29947220  0.32270054  0.03412612    -0.53100
C63         C  0.33234311  0.32790344  0.33994878     0.10100
C64         C  0.33296606  0.35795223  0.30902468     0.21000
C65         C  0.31753496  0.39531428  0.02703063    -0.53800
C66         C  0.34643368  0.40115451  0.33033797     0.10200
C67         C  0.25904323  0.33756085  0.33087127    -0.53300
C68         C  0.28406421  0.34036957  0.29993043     0.10800
H69         H  0.29481784  0.30572286  0.05966574     0.15300
H70         H  0.35409241  0.36111372  0.28423085     0.01000
H71         H  0.32183088  0.42208061  0.04448082     0.15600
H72         H  0.22423772  0.32503408  0.33012233     0.15400
Fe73       Fe  0.04894650  0.21913845  0.16571106     1.65800
Fe74       Fe  0.14886497  0.22820570  0.17249061     1.73200
Fe75       Fe  0.13949144  0.31811818  0.16459281     1.54400
O76         O  0.10154087  0.31750404  0.12080240    -0.81000
O77         O  0.19427443  0.27457282  0.20796771    -0.79300
O78         O  0.04241508  0.25332796  0.12289291    -0.83500
O79         O  0.03843341  0.25286112  0.20636790    -0.78400
O80         O  0.18441461  0.32219735  0.12426945    -0.80100
O81         O  0.11414454  0.19294668  0.21860038    -0.82900
C82         C  0.05988612  0.29067159  0.21817235     0.97900
C83         C  0.06503432  0.28994899  0.10813667     1.05300
O84         O  0.11249673  0.25529895  0.16789274    -1.11900
O85         O  0.11071281  0.17693805  0.13876835    -0.74300
O86         O  0.05292220  0.18190177  0.12506730    -0.77800
O87         O  0.09649221  0.31852899  0.20432290    -0.78500
C88         C  0.07696521  0.16572157  0.12059649     0.96800
O89         O  0.04684361  0.17926200  0.20766667    -0.76400
O90         O  0.18388123  0.25978175  0.12544231    -0.81600
C91         C  0.20120376  0.31067176  0.22029434     0.99400
C92         C  0.19484875  0.29554740  0.11072880     1.05300
O93         O  0.18150070  0.32887320  0.20786876    -0.77300
C94         C  0.07352029  0.17384818  0.22612004     1.03600
Fe95       Fe  0.36743067  0.11391995  0.16665744     1.65800
Fe96       Fe  0.26140505  0.03129976  0.16687596     1.73200
Fe97       Fe  0.28338449  0.13514965  0.17461168     1.54400
O98         O  0.32620539  0.17221544  0.21508263    -0.81000
O99         O  0.22405255  0.03835071  0.13008988    -0.79300
O100        O  0.38052977  0.15809767  0.21095686    -0.83500
O101        O  0.38050146  0.15947048  0.12710725    -0.78400
O102        O  0.23890201  0.10111952  0.21730770    -0.80100
O103        O  0.29364415  0.02228996  0.12038902    -0.82900
C104        C  0.36070392  0.17835966  0.11714138     0.97900
C105        C  0.36226633  0.17801682  0.22578230     1.05300
O106        O  0.30413854  0.09347526  0.16964517    -1.11900
O107        O  0.29322737  0.01556570  0.20355425    -0.74300
O108        O  0.36120839  0.07015000  0.20502250    -0.77800
O109        O  0.32560289  0.17270831  0.13303516    -0.78500
C110        C  0.33108744  0.03373537  0.21575873     0.96800
O111        O  0.36326035  0.07298050  0.12194191    -0.76400
O112        O  0.22306145  0.03303866  0.21215363    -0.81600
C113        C  0.21929513  0.06869956  0.11945256     0.99400
C114        C  0.21863037  0.06255161  0.22835486     1.05300
O115        O  0.23858277  0.10577447  0.13368825    -0.77300
C116        C  0.33232875  0.04023776  0.10669599     1.03600
C117        C  0.24942507  0.34496600  0.06505333    -0.15800
C118        C  0.21974494  0.30519316  0.07554288    -0.30900
H119        H  0.25487161  0.37231528  0.08227023     0.13300
H120        H  0.21616684  0.27804297  0.05892687     0.13800
C121        C  0.26359976  0.32545201  0.26245644    -0.15800
C122        C  0.23048097  0.33148956  0.25240404    -0.30900
H123        H  0.27422088  0.30772595  0.24421865     0.13300
H124        H  0.22310096  0.35234747  0.26973455     0.13800
C125        C  0.33983651  0.01173515  0.24454597    -0.15800
C126        C  0.38052262  0.02291783  0.25208198    -0.30900
H127        H  0.31271895  0.98715126  0.26080672     0.13300
H128        H  0.40744620  0.04643771  0.23488641     0.13800
C129        C  0.37345905  0.01703961  0.06095816    -0.15800
C130        C  0.34002048  0.02413479  0.06969396    -0.30900
H131        H  0.39471960  0.01972130  0.08291938     0.13300
H132        H  0.31615623  0.01706457  0.04876392     0.13800
C133        C  0.06562437  0.13335628  0.09218614    -0.15800
C134        C  0.05743316  0.14088463  0.05802707    -0.30900
H135        H  0.06744861  0.10493349  0.09820583     0.12700
H136        H  0.05859445  0.17082479  0.05189033     0.13800
C137        C  0.05618144  0.14622306  0.25913466    -0.15800
C138        C  0.06971575  0.11929715  0.26963776    -0.30900
H139        H  0.03147050  0.14877757  0.27611032     0.13300
H140        H  0.09141889  0.11318312  0.25168049     0.13800
C141        C  0.19141260  0.06058724  0.08807147    -0.15800
C142        C  0.16176256  0.02048515  0.07847361    -0.30900
H143        H  0.19607001  0.08770763  0.07192275     0.13300
H144        H  0.15601207  0.99367177  0.09567204     0.13800
C145        C  0.15420692  0.01738717  0.27131604    -0.15800
C146        C  0.19216938  0.05349273  0.26361114    -0.30900
H147        H  0.13802021  0.99368728  0.24971139     0.13300
H148        H  0.20541159  0.07820480  0.28497014     0.13800
C149        C  0.04171184  0.30152554  0.25061917    -0.15800
C150        C  0.05842386  0.34180700  0.26188570    -0.30900
H151        H  0.01516587  0.27584833  0.26650915     0.13300
H152        H  0.08412365  0.36755129  0.24539182     0.13800
C153        C  0.04979424  0.33507170  0.06436392    -0.15800
C154        C  0.04919666  0.29833203  0.07290120    -0.30900
H155        H  0.05963534  0.36022829  0.08521351     0.13300
H156        H  0.03522085  0.27197339  0.05311878     0.13800
C157        C  0.38224975  0.20713046  0.25839678    -0.15800
C158        C  0.37556641  0.24031692  0.26781824    -0.30900
H159        H  0.40092536  0.19930440  0.27656379     0.13300
H160        H  0.35990903  0.25046992  0.24843636     0.13800
C161        C  0.35686888  0.22584140  0.07264425    -0.15800
C162        C  0.37842761  0.20719613  0.08482899    -0.30900
H163        H  0.32770240  0.22068124  0.08809974     0.13300
H164        H  0.40782392  0.21181855  0.07017475     0.13800
C165        C  0.38117553  0.26032663  0.37367919     0.87200
C166        C  0.42660477  0.29979685  0.37251123    -0.53100
C167        C  0.43042185  0.31909851  0.67523797     0.10100
C168        C  0.39259200  0.30495117  0.64766748     0.21000
C169        C  0.35012197  0.27734914  0.37041537    -0.53800
C170        C  0.35408381  0.30247520  0.67248911     0.10200
C171        C  0.37737963  0.23670488  0.33694461    -0.53300
C172        C  0.37950294  0.25749538  0.63766285     0.10800
H173        H  0.45087738  0.30491369  0.39239826     0.15300
H174        H  0.40140457  0.32610141  0.62310093     0.01000
H175        H  0.32311368  0.26715595  0.39020632     0.15600
H176        H  0.35844681  0.19833500  0.66675077     0.15400
C177        C  0.03526265  0.34796695  0.62719870     0.87200
C178        C  0.49177379  0.33664559  0.63143170    -0.53100
C179        C  0.48176404  0.35428139  0.32948231     0.10100
C180        C  0.01832374  0.37225530  0.36005041     0.21000
C181        C  0.05369255  0.39563284  0.63111753    -0.53800
C182        C  0.05058414  0.41094894  0.33539781     0.10200
C183        C  0.04844064  0.33383442  0.66223010    -0.53300
C184        C  0.04170139  0.34612217  0.36539574     0.10800
H185        H  0.47015202  0.31588000  0.61021517     0.15300
H186        H  0.00796793  0.38141631  0.38666926     0.01000
H187        H  0.07790664  0.41844214  0.61155266     0.15600
H188        H  0.07247956  0.31865790  0.33059794     0.15400
C189        C  0.13725923  0.00725431  0.37764124     0.87200
C190        C  0.11614128  0.03465315  0.37844938    -0.53100
C191        C  0.09173272  0.03054227  0.67754421     0.10100
C192        C  0.08519214  0.49178331  0.65138227     0.21000
C193        C  0.10308976  0.46527195  0.37595331    -0.53800
C194        C  0.07185305  0.45177299  0.67580105     0.10200
C195        C  0.16095964  0.01563553  0.33970962    -0.53300
C196        C  0.13377268  0.50877133  0.63936349     0.10800
H197        H  0.12359481  0.05816208  0.40030196     0.15300
H198        H  0.06375980  0.48555188  0.62768263     0.01000
H199        H  0.10095978  0.44113339  0.39474685     0.15600
H200        H  0.19663838  0.02686397  0.67204395     0.15400
C201        C  0.04027118  0.09904911  0.37333118     0.87200
C202        C  0.49354551  0.06538287  0.36342707    -0.53100
C203        C  0.49495781  0.03924973  0.66691109     0.10100
C204        C  0.03866355  0.04967908  0.64106864     0.21000
C205        C  0.06376138  0.07453601  0.37857723    -0.53800
C206        C  0.07174361  0.05747523  0.67076772     0.10200
C207        C  0.05890619  0.12424848  0.33743012    -0.53300
C208        C  0.05765852  0.09266896  0.61964634     0.10800
H209        H  0.46565436  0.06212626  0.37952782     0.15300
H210        H  0.03053489  0.02155810  0.62287223     0.01000
H211        H  0.07702291  0.07546795  0.40530069     0.15600
H212        H  0.08059876  0.15948378  0.63186808     0.15400
C213        C  0.39151309  0.00586264  0.61961805     0.87200
C214        C  0.43956660  0.02229902  0.62239728    -0.53100
C215        C  0.44840094  0.00964615  0.31995799     0.10100
C216        C  0.40819717  0.48094612  0.34590460     0.21000
C217        C  0.37900971  0.46251416  0.61695717    -0.53800
C218        C  0.37897637  0.44468562  0.31818788     0.10200
C219        C  0.37729222  0.01999849  0.65610940    -0.53300
C220        C  0.38488380  0.00560894  0.35392990     0.10800
H221        H  0.46309692  0.04473832  0.60239962     0.15300
H222        H  0.41604918  0.46911157  0.37101225     0.01000
H223        H  0.35542938  0.44064270  0.59739409     0.15600
H224        H  0.36030787  0.03903359  0.32317840     0.15400
C225        C  0.28355437  0.35233861  0.36705588     0.87200
C226        C  0.30666433  0.32674815  0.37018069    -0.53100
C227        C  0.33271452  0.33005373  0.67104062     0.10100
C228        C  0.33866469  0.36279235  0.64045504     0.21000
C229        C  0.31991419  0.39734388  0.36016353    -0.53800
C230        C  0.35731205  0.40640429  0.66220947     0.10200
C231        C  0.26824616  0.35312933  0.66171805    -0.53300
C232        C  0.29147768  0.35163609  0.63116794     0.10800
H233        H  0.30380295  0.31133742  0.39634221     0.15300
H234        H  0.35883488  0.36342571  0.61574778     0.01000
H235        H  0.32358747  0.42431013  0.37699437     0.15600
H236        H  0.23446119  0.34497672  0.66094507     0.15400
Fe237      Fe  0.05493154  0.21960008  0.50137232     1.65800
Fe238      Fe  0.15535681  0.23352946  0.50972020     1.73200
Fe239      Fe  0.14152726  0.31974120  0.49960477     1.54400
O240        O  0.10518430  0.31606457  0.45411819    -0.81000
O241        O  0.19849989  0.28077654  0.54528372    -0.79300
O242        O  0.04215514  0.25818587  0.46689546    -0.83500
O243        O  0.04467673  0.24587848  0.54789317    -0.78400
O244        O  0.18968573  0.32655440  0.46087165    -0.80100
O245        O  0.11944719  0.19741894  0.55565634    -0.82900
C246        C  0.06045303  0.28532225  0.55482215     0.97900
C247        C  0.06551098  0.29143487  0.44738041     1.05300
O248        O  0.11771144  0.25819192  0.50401065    -1.11900
O249        O  0.11907607  0.18465497  0.47296144    -0.74300
O250        O  0.06513081  0.19436165  0.45468742    -0.77800
O251        O  0.09325824  0.31531350  0.53718318    -0.78500
C252        C  0.08996845  0.17887538  0.45044433     0.96800
O253        O  0.05477132  0.17036625  0.53203078    -0.76400
O254        O  0.19158634  0.26556484  0.46394434    -0.81600
C255        C  0.20434453  0.31699676  0.55613643     0.99400
C256        C  0.20172072  0.30056677  0.44846164     1.05300
O257        O  0.18267573  0.33319878  0.54382143    -0.77300
C258        C  0.08181234  0.16592174  0.55088495     1.03600
Fe259      Fe  0.37085230  0.11341780  0.49940304     1.65800
Fe260      Fe  0.26478191  0.03067489  0.49954016     1.73200
Fe261      Fe  0.28685601  0.13462137  0.50409093     1.54400
O262        O  0.32869735  0.17216908  0.54475656    -0.81000
O263        O  0.22823799  0.03669844  0.46158777    -0.79300
O264        O  0.38224248  0.15684178  0.54406524    -0.83500
O265        O  0.38601152  0.16009403  0.46011818    -0.78400
O266        O  0.24144578  0.10142684  0.54681152    -0.80100
O267        O  0.29766187  0.02090837  0.45415459    -0.82900
C268        C  0.36664299  0.17890608  0.44887382     0.97900
C269        C  0.36371846  0.17723484  0.55733787     1.05300
O270        O  0.30760229  0.09295292  0.50122367    -1.11900
O271        O  0.29533954  0.01542742  0.53741769    -0.74300
O272        O  0.36371892  0.06909151  0.53771705    -0.77800
O273        O  0.33018463  0.17194293  0.46273959    -0.78500
C274        C  0.33322183  0.03326543  0.54926021     0.96800
O275        O  0.36697164  0.07288121  0.45447642    -0.76400
O276        O  0.22611162  0.03344540  0.54399239    -0.81600
C277        C  0.22401129  0.06671346  0.44937193     0.99400
C278        C  0.22145125  0.06331143  0.55910770     1.05300
O279        O  0.24320718  0.10428373  0.46257231    -0.77300
C280        C  0.33607503  0.03949566  0.43987561     1.03600
C281        C  0.25517976  0.34806414  0.40092680    -0.15800
C282        C  0.22686971  0.30897997  0.41347016    -0.30900
H283        H  0.25990935  0.37622151  0.41650471     0.13300
H284        H  0.22407630  0.28122161  0.39837007     0.13800
C285        C  0.26938734  0.33526121  0.59480834    -0.15800
C286        C  0.23575402  0.34082790  0.58576188    -0.30900
H287        H  0.27822030  0.31561611  0.57728827     0.13300
H288        H  0.22985149  0.36349591  0.60179064     0.13800
C289        C  0.34150136  0.01152262  0.57851047    -0.15800
C290        C  0.38198444  0.02203403  0.58575347    -0.30900
H291        H  0.31429491  0.98777769  0.59531747     0.13300
H292        H  0.40886712  0.04472616  0.56798844     0.13800
C293        C  0.37737302  0.01808745  0.39290838    -0.15800
C294        C  0.34310195  0.02332443  0.40279277    -0.30900
H295        H  0.40013933  0.02228863  0.41402197     0.13300
H296        H  0.31799552  0.01464138  0.38271899     0.13800
C297        C  0.08433826  0.15270060  0.41825872    -0.15800
C298        C  0.04462059  0.12688472  0.40569510    -0.30900
H299        H  0.11288344  0.15315898  0.40548414     0.12700
H300        H  0.01585951  0.12475762  0.41972407     0.13800
C301        C  0.07554804  0.12203533  0.55156660    -0.15800
C302        C  0.06629372  0.09297236  0.57865557    -0.30900
H303        H  0.07796730  0.11082625  0.52364049     0.13300
H304        H  0.06305284  0.06294807  0.56834170     0.13800
C305        C  0.19616106  0.05726781  0.41788271    -0.15800
C306        C  0.16634726  0.01675981  0.40956237    -0.30900
H307        H  0.19975609  0.08378127  0.40142638     0.13300
H308        H  0.16168541  0.99045442  0.42692741     0.13800
C309        C  0.15969984  0.01702171  0.60392130    -0.15800
C310        C  0.19438330  0.05505820  0.59415555    -0.30900
H311        H  0.14707222  0.99054955  0.58424383     0.13300
H312        H  0.20417239  0.08179595  0.61341775     0.13800
C313        C  0.03967136  0.29623364  0.58522805    -0.15800
C314        C  0.05084181  0.33668273  0.59217877    -0.30900
H315        H  0.01622956  0.27088941  0.60348310     0.13300
H316        H  0.07368218  0.36202767  0.57362693     0.13800
C317        C  0.05591727  0.33879795  0.40217768    -0.15800
C318        C  0.04616913  0.29950325  0.41416685    -0.30900
H319        H  0.07598074  0.36662608  0.41909210     0.13300
H320        H  0.02331481  0.27169654  0.39850574     0.13800
C321        C  0.38174943  0.20596453  0.59042961    -0.15800
C322        C  0.37363455  0.23836785  0.59922340    -0.30900
H323        H  0.39945719  0.19811113  0.60967853     0.13300
H324        H  0.35888437  0.24858919  0.57898974     0.13800
C325        C  0.36890055  0.23292813  0.40808087    -0.15800
C326        C  0.38665793  0.20952960  0.41767498    -0.30900
H327        H  0.34204982  0.23063103  0.42551796     0.13300
H328        H  0.41414414  0.21137068  0.40159955     0.13800
C329        C  0.37276999  0.25545119  0.70527784     0.87200
C330        C  0.41895583  0.29346324  0.70573260    -0.53100
C331        C  0.42606196  0.31828722  0.00873092     0.10100
C332        C  0.38825628  0.30263821  0.98097319     0.21000
C333        C  0.34365734  0.27466065  0.70136129    -0.53800
C334        C  0.34884802  0.29824820  0.00544366     0.10200
C335        C  0.36955531  0.23234610  0.66837502    -0.53300
C336        C  0.37733784  0.25576217  0.97102187     0.10800
H337        H  0.44209975  0.29673302  0.72617627     0.15300
H338        H  0.39625580  0.32370792  0.95644980     0.01000
H339        H  0.31676863  0.26618415  0.72099790     0.15600
H340        H  0.35876056  0.19708771  0.00018627     0.15400
C341        C  0.03659885  0.34492585  0.95878784     0.87200
C342        C  0.48650531  0.33463554  0.96437509    -0.53100
C343        C  0.47731472  0.34527695  0.66446411     0.10100
C344        C  0.01099945  0.36917887  0.68934731     0.21000
C345        C  0.05654443  0.39311252  0.96267820    -0.53800
C346        C  0.04229716  0.40762126  0.66367769     0.10200
C347        C  0.04877583  0.33030312  0.99410179    -0.53300
C348        C  0.03562251  0.34454600  0.69510579     0.10800
H349        H  0.46444930  0.31390410  0.94339214     0.15300
H350        H  0.00056710  0.37863288  0.71576458     0.01000
H351        H  0.08109561  0.41558286  0.94314184     0.15600
H352        H  0.06727288  0.31758395  0.66094635     0.15400
C353        C  0.13547778  0.00792204  0.71003612     0.87200
C354        C  0.11453854  0.03562647  0.70887520    -0.53100
C355        C  0.09469279  0.03543138  0.00919208     0.10100
C356        C  0.08709388  0.49085182  0.98249620     0.21000
C357        C  0.09871458  0.45921569  0.70438517    -0.53800
C358        C  0.07393971  0.45063658  0.00686352     0.10200
C359        C  0.16220155  0.01656386  0.67329677    -0.53300
C360        C  0.13575787  0.50797551  0.97074839     0.10800
H361        H  0.11768056  0.05671863  0.73193482     0.15300
H362        H  0.06581893  0.48454469  0.95865634     0.01000
H363        H  0.09571184  0.43405933  0.72232974     0.15600
H364        H  0.19656447  0.02709215  0.00705900     0.15400
C365        C  0.05579789  0.11507286  0.68374015     0.87200
C366        C  0.49961837  0.06663748  0.69556194    -0.53100
C367        C  0.48914858  0.03367885  0.00673252     0.10100
C368        C  0.03849134  0.05373266  0.97573276     0.21000
C369        C  0.08031317  0.09183690  0.69273269    -0.53800
C370        C  0.07676940  0.06411190  0.00120113     0.10200
C371        C  0.06659119  0.12708261  0.64215273    -0.53300
C372        C  0.04735992  0.09798549  0.96095666     0.10800
H373        H  0.47340495  0.06109353  0.71529697     0.15300
H374        H  0.03348759  0.02990507  0.95351981     0.01000
H375        H  0.10204641  0.10170399  0.71551296     0.15600
H376        H  0.05782745  0.15831125  0.98365122     0.15400
C377        C  0.39092947  0.00668580  0.95396880     0.87200
C378        C  0.43874144  0.02240594  0.95900239    -0.53100
C379        C  0.45057699  0.01092369  0.65409794     0.10100
C380        C  0.41769228  0.48639606  0.67504327     0.21000
C381        C  0.36968474  0.45705920  0.95342121    -0.53800
C382        C  0.38897270  0.44910778  0.64817574     0.10200
C383        C  0.37476938  0.01934968  0.99027154    -0.53300
C384        C  0.38726604  0.00734955  0.68791300     0.10800
H385        H  0.46433866  0.04667106  0.94137137     0.15300
H386        H  0.42720652  0.47581826  0.69997614     0.01000
H387        H  0.34616085  0.43618832  0.93335812     0.15600
H388        H  0.36196174  0.03960052  0.65650874     0.15400
C389        C  0.29195660  0.36335608  0.69813339     0.87200
C390        C  0.30758824  0.33123699  0.70087476    -0.53100
C391        C  0.32557681  0.32399315  0.00431349     0.10100
C392        C  0.32969559  0.35677505  0.97465609     0.21000
C393        C  0.33264060  0.40531148  0.69251825    -0.53800
C394        C  0.34455200  0.39912683  0.99743269     0.10200
C395        C  0.25615476  0.33953807  0.99479496    -0.53300
C396        C  0.28211690  0.34288584  0.96445082     0.10800
H397        H  0.30045332  0.31325729  0.72630334     0.15300
H398        H  0.35130797  0.36001617  0.95020448     0.01000
H399        H  0.33926389  0.43286815  0.70971554     0.15600
H400        H  0.22184316  0.32906791  0.99301476     0.15400
Fe401      Fe  0.05907693  0.21879320  0.82506432     1.65800
Fe402      Fe  0.16562790  0.24400656  0.82804151     1.73200
Fe403      Fe  0.14038997  0.32390406  0.82781361     1.54400
O404        O  0.09860944  0.32008863  0.78679125    -0.81000
O405        O  0.20001854  0.28437220  0.87093499    -0.79300
O406        O  0.04629734  0.25211764  0.78541889    -0.83500
O407        O  0.04244390  0.24606497  0.86897693    -0.78400
O408        O  0.18541731  0.33701077  0.78495642    -0.80100
O409        O  0.13233384  0.19838945  0.86736692    -0.82900
C410        C  0.05991492  0.28383621  0.88194053     0.97900
C411        C  0.06419257  0.29011026  0.77316323     1.05300
O412        O  0.12157537  0.26231296  0.82748843    -1.11900
O413        O  0.13872389  0.20378572  0.78339879    -0.74300
O414        O  0.07046682  0.18991935  0.77999854    -0.77800
O415        O  0.09535074  0.31468439  0.86907705    -0.78500
C416        C  0.10359064  0.18933110  0.76642951     0.96800
O417        O  0.06220644  0.17760840  0.86396195    -0.76400
O418        O  0.20361390  0.28633658  0.78904208    -0.81600
C419        C  0.20509490  0.31984321  0.88297539     0.99400
C420        C  0.20510020  0.31766264  0.77319656     1.05300
O421        O  0.18555605  0.33768112  0.86932304    -0.77300
C422        C  0.09328031  0.17548620  0.87825691     1.03600
Fe423      Fe  0.36937360  0.11337934  0.83170849     1.65800
Fe424      Fe  0.26384035  0.02950680  0.83240845     1.73200
Fe425      Fe  0.28413483  0.13274760  0.83835272     1.54400
O426        O  0.32697728  0.17119788  0.87796822    -0.81000
O427        O  0.22602000  0.03482678  0.79470925    -0.79300
O428        O  0.38110574  0.15683171  0.87625099    -0.83500
O429        O  0.38197069  0.15910307  0.79218386    -0.78400
O430        O  0.24116799  0.09970079  0.88191132    -0.80100
O431        O  0.29685413  0.02026006  0.78678980    -0.82900
C432        C  0.36123660  0.17670456  0.78126624     0.97900
C433        C  0.36235216  0.17672133  0.89003268     1.05300
O434        O  0.30587647  0.09187680  0.83427506    -1.11900
O435        O  0.29599521  0.01550519  0.86995773    -0.74300
O436        O  0.36409507  0.06992514  0.87014154    -0.77800
O437        O  0.32515857  0.16952841  0.79605594    -0.78500
C438        C  0.33399967  0.03396861  0.88179089     0.96800
O439        O  0.36588375  0.07279329  0.78711563    -0.76400
O440        O  0.22534606  0.03162575  0.87739548    -0.81600
C441        C  0.22022792  0.06458858  0.78414622     0.99400
C442        C  0.22147684  0.06145733  0.89360540     1.05300
O443        O  0.23878683  0.10167251  0.79832088    -0.77300
C444        C  0.33536464  0.03903423  0.77269558     1.03600
C445        C  0.26477526  0.36304168  0.73117300    -0.15800
C446        C  0.22735404  0.32752872  0.73747342    -0.30900
H447        H  0.27666197  0.38952793  0.75092466     0.13300
H448        H  0.21728088  0.30064660  0.71827070     0.13800
C449        C  0.26395384  0.33165719  0.92629423    -0.15800
C450        C  0.23262691  0.33996450  0.91578052    -0.30900
H451        H  0.27432783  0.31390232  0.90779508     0.13300
H452        H  0.22502153  0.36060024  0.93324312     0.13800
C453        C  0.34260955  0.01280045  0.91135317    -0.15800
C454        C  0.38305891  0.02441835  0.92014296    -0.30900
H455        H  0.31515835  0.98801051  0.92718179     0.13300
H456        H  0.41057824  0.04824247  0.90368139     0.13800
C457        C  0.37958043  0.02065636  0.72638053    -0.15800
C458        C  0.34317841  0.02220818  0.73629941    -0.30900
H459        H  0.40395396  0.02862526  0.74698544     0.13300
H460        H  0.31709183  0.00998801  0.71674502     0.13800
C461        C  0.10160105  0.17104374  0.72922310    -0.15800
C462        C  0.06440938  0.15097437  0.71072751    -0.30900
H463        H  0.13055519  0.17101732  0.71824132     0.12700
H464        H  0.03633114  0.15250750  0.72200859     0.13800
C465        C  0.08663911  0.15030829  0.91215780    -0.15800
C466        C  0.05256043  0.11188935  0.92135039    -0.30900
H467        H  0.11222646  0.16599714  0.93214861     0.13300
H468        H  0.02793607  0.09309983  0.90139157     0.13800
C469        C  0.19189764  0.05610569  0.75307352    -0.15800
C470        C  0.16203102  0.01609869  0.74368395    -0.30900
H471        H  0.19601302  0.08317129  0.73713836     0.13300
H472        H  0.15663200  0.98917069  0.76055431     0.13800
C473        C  0.15986568  0.01620595  0.93843061    -0.15800
C474        C  0.19586440  0.05323970  0.92922275    -0.30900
H475        H  0.14529232  0.99053048  0.91811449     0.13300
H476        H  0.20733611  0.07960567  0.94907205     0.13800
C477        C  0.03875915  0.29262476  0.91396828    -0.15800
C478        C  0.05173827  0.33318038  0.92354582    -0.30900
H479        H  0.01396563  0.26632811  0.93054003     0.13300
H480        H  0.07551880  0.35904516  0.90594218     0.13800
C481        C  0.04783948  0.33593751  0.73214288    -0.15800
C482        C  0.04569454  0.29831423  0.73974671    -0.30900
H483        H  0.05948164  0.36115421  0.75302516     0.13300
H484        H  0.03042493  0.27217052  0.71988408     0.13800
C485        C  0.38050013  0.20529901  0.92315022    -0.15800
C486        C  0.37134953  0.23683110  0.93256376    -0.30900
H487        H  0.39903524  0.19795425  0.94191184     0.13300
H488        H  0.35565978  0.24649428  0.91277438     0.13800
C489        C  0.35918528  0.22721862  0.73893278    -0.15800
C490        C  0.37921275  0.20626001  0.74945708    -0.30900
H491        H  0.33096232  0.22335675  0.75521785     0.13300
H492        H  0.40791427  0.21004446  0.73406463     0.13800
C493        C  0.36899895  0.75196594  0.03679150     0.87200
C494        C  0.41417518  0.79145145  0.03828261    -0.53100
C495        C  0.42685563  0.81883494  0.34226578     0.10100
C496        C  0.38896066  0.80353104  0.31454029     0.21000
C497        C  0.33796555  0.76877403  0.03259477    -0.53800
C498        C  0.34993696  0.79907581  0.33966057     0.10200
C499        C  0.36774020  0.73004674  0.99968339    -0.53300
C500        C  0.37759515  0.75653137  0.30382074     0.10800
H501        H  0.43735873  0.79528734  0.05890700     0.15300
H502        H  0.39685136  0.82500629  0.29033606     0.01000
H503        H  0.30977237  0.75791489  0.05120355     0.15600
H504        H  0.35911480  0.69754581  0.33241495     0.15400
C505        C  0.03722651  0.85091174  0.29664409     0.87200
C506        C  0.48792923  0.83614767  0.29896663    -0.53100
C507        C  0.47205929  0.84446929  0.99767575     0.10100
C508        C  0.01327534  0.87555962  0.02500862     0.21000
C509        C  0.05705241  0.89848458  0.30226855    -0.53800
C510        C  0.04509256  0.91424274  0.99980870     0.10200
C511        C  0.04807160  0.83427333  0.33148733    -0.53300
C512        C  0.03700044  0.84972841  0.02997098     0.10800
H513        H  0.46629346  0.81447981  0.27817875     0.15300
H514        H  0.00337179  0.88490970  0.05176462     0.01000
H515        H  0.08209642  0.92173418  0.28353059     0.15600
H516        H  0.06697703  0.82195329  0.99436481     0.15400
C517        C  0.13723141  0.50475360  0.03817994     0.87200
C518        C  0.11461559  0.53077292  0.03977331    -0.53100
C519        C  0.09043464  0.52936785  0.34768011     0.10100
C520        C  0.08705727  0.99324678  0.32216493     0.21000
C521        C  0.09678747  0.96666767  0.04267623    -0.53800
C522        C  0.07288884  0.95371835  0.34743051     0.10200
C523        C  0.16139980  0.51494132  0.00034928    -0.53300
C524        C  0.13531271  0.00894285  0.31026715     0.10800
H525        H  0.12089904  0.55284451  0.06266928     0.15300
H526        H  0.06566993  0.98691262  0.29840814     0.01000
H527        H  0.09074921  0.94192375  0.06252966     0.15600
H528        H  0.19783744  0.53014324  0.33437967     0.15400
C529        C  0.03739113  0.59476515  0.03724767     0.87200
C530        C  0.49353581  0.56125616  0.03242379    -0.53100
C531        C  0.49179105  0.53974275  0.33761278     0.10100
C532        C  0.03673753  0.55167621  0.31392950     0.21000
C533        C  0.06400701  0.57299312  0.04030186    -0.53800
C534        C  0.06478951  0.55183209  0.34598052     0.10200
C535        C  0.05249167  0.61980897  0.00098483    -0.53300
C536        C  0.05497803  0.59949462  0.30441460     0.10800
H537        H  0.46539689  0.55743621  0.04846661     0.15300
H538        H  0.03506439  0.53154507  0.28946437     0.01000
H539        H  0.07982202  0.57606117  0.06612603     0.15600
H540        H  0.06870080  0.65809301  0.33277487     0.15400
C541        C  0.39109916  0.50805338  0.28650383     0.87200
C542        C  0.43940513  0.52538183  0.29071079    -0.53100
C543        C  0.44860825  0.50823012  0.98727772     0.10100
C544        C  0.40523048  0.97824050  0.01397304     0.21000
C545        C  0.36913080  0.95749138  0.28676742    -0.53800
C546        C  0.37622305  0.94268427  0.98593471     0.10200
C547        C  0.37511413  0.52009472  0.32321018    -0.53300
C548        C  0.38466709  0.50480112  0.02066089     0.10800
H549        H  0.46411709  0.55026280  0.27289282     0.15300
H550        H  0.41190054  0.96584255  0.03937945     0.01000
H551        H  0.34517531  0.93635888  0.26711140     0.15600
H552        H  0.36113477  0.53880865  0.98944095     0.15400
C553        C  0.28089898  0.85205422  0.03500487     0.87200
C554        C  0.30200524  0.82443385  0.03669405    -0.53100
C555        C  0.32787888  0.82594376  0.34037740     0.10100
C556        C  0.32938081  0.85686659  0.31015475     0.21000
C557        C  0.31838598  0.89627905  0.02851647    -0.53800
C558        C  0.34510170  0.90031821  0.33150202     0.10200
C559        C  0.25697875  0.83945345  0.33385200    -0.53300
C560        C  0.28081561  0.84123307  0.30242005     0.10800
H561        H  0.29903789  0.80806051  0.06235555     0.15300
H562        H  0.34933025  0.85903714  0.28477519     0.01000
H563        H  0.32343714  0.92330615  0.04595142     0.15600
H564        H  0.22234113  0.82807747  0.33382117     0.15400
Fe565      Fe  0.04956745  0.72177666  0.16356274     1.65800
Fe566      Fe  0.15004401  0.73247857  0.17425550     1.73200
Fe567      Fe  0.13929339  0.82157309  0.16598315     1.54400
O568        O  0.10075840  0.82244646  0.12341635    -0.81000
O569        O  0.18788183  0.77423858  0.21540772    -0.79300
O570        O  0.04533696  0.75626256  0.11977703    -0.83500
O571        O  0.03650372  0.75527359  0.20307728    -0.78400
O572        O  0.18332499  0.82623643  0.12466356    -0.80100
O573        O  0.11037451  0.69030172  0.21521554    -0.82900
C574        C  0.05808386  0.79186000  0.21753268     0.97900
C575        C  0.06644666  0.79442853  0.10798020     1.05300
O576        O  0.11296441  0.75867205  0.16829984    -1.11900
O577        O  0.11992994  0.68887834  0.13290809    -0.74300
O578        O  0.05636125  0.68481224  0.12376165    -0.77800
O579        O  0.09621436  0.81978254  0.20657562    -0.78500
C580        C  0.08556114  0.67566790  0.11524457     0.96800
O581        O  0.04468903  0.68149683  0.20615029    -0.76400
O582        O  0.19168409  0.76946350  0.13304018    -0.81600
C583        C  0.19821113  0.81231892  0.22419905     0.99400
C584        C  0.19883133  0.80222882  0.11529802     1.05300
O585        O  0.18267712  0.83254238  0.20814141    -0.77300
C586        C  0.07002812  0.67295666  0.22321923     1.03600
Fe587      Fe  0.36665025  0.61220618  0.16450551     1.65800
Fe588      Fe  0.26129779  0.52816582  0.16513996     1.73200
Fe589      Fe  0.28131094  0.63149062  0.16975363     1.54400
O590        O  0.32286712  0.66967087  0.21073177    -0.81000
O591        O  0.22434477  0.53326711  0.12654499    -0.79300
O592        O  0.37780103  0.65633894  0.20844094    -0.83500
O593        O  0.37984958  0.65730097  0.12438975    -0.78400
O594        O  0.23634683  0.59817198  0.21202660    -0.80100
O595        O  0.29469774  0.51862199  0.11986499    -0.82900
C596        C  0.35955570  0.67535299  0.11365543     0.97900
C597        C  0.35870683  0.67584556  0.22247747     1.05300
O598        O  0.30315818  0.59063511  0.16673902    -1.11900
O599        O  0.29315813  0.51447958  0.20350746    -0.74300
O600        O  0.36103955  0.56930191  0.20353578    -0.77800
O601        O  0.32382006  0.66875927  0.12868270    -0.78500
C602        C  0.33120942  0.53332200  0.21536364     0.96800
O603        O  0.36363628  0.57119945  0.12030414    -0.76400
O604        O  0.22199425  0.53049085  0.20943843    -0.81600
C605        C  0.21993651  0.56314690  0.11409595     0.99400
C606        C  0.21692058  0.56021881  0.22436653     1.05300
O607        O  0.23809657  0.60050846  0.12788389    -0.77300
C608        C  0.33321449  0.53744561  0.10576674     1.03600
C609        C  0.25355569  0.84859074  0.06905870    -0.15800
C610        C  0.22399640  0.80978836  0.08080817    -0.30900
H611        H  0.25941742  0.87685858  0.08507595     0.13300
H612        H  0.22007899  0.78168611  0.06555774     0.13800
C613        C  0.25958100  0.82633253  0.26562935    -0.15800
C614        C  0.22721770  0.83345498  0.25597758    -0.30900
H615        H  0.26906433  0.80766786  0.24742847     0.13300
H616        H  0.22081200  0.85527258  0.27285260     0.13800
C617        C  0.34063494  0.51264464  0.24491685    -0.15800
C618        C  0.38153537  0.52496998  0.25300623    -0.30900
H619        H  0.31370940  0.48772642  0.26109129     0.13300
H620        H  0.40841727  0.54890550  0.23607530     0.13800
C621        C  0.37611551  0.51693537  0.05951969    -0.15800
C622        C  0.34105227  0.52113095  0.06896357    -0.30900
H623        H  0.39879729  0.52182673  0.08092863     0.13300
H624        H  0.31609198  0.51174912  0.04861738     0.13800
C625        C  0.08027367  0.64969541  0.08252633    -0.15800
C626        C  0.04093335  0.62189850  0.07031610    -0.30900
H627        H  0.10939154  0.65265175  0.06852477     0.12700
H628        H  0.01171400  0.61749981  0.08523178     0.13800
C629        C  0.05181765  0.64377608  0.25537195    -0.15800
C630        C  0.06725756  0.61862924  0.26663712    -0.30900
H631        H  0.02572708  0.64456806  0.27169951     0.13300
H632        H  0.09093080  0.61461196  0.24952459     0.13800
C633        C  0.19351193  0.55415591  0.08142870    -0.15800
C634        C  0.16586782  0.51378279  0.07065071    -0.30900
H635        H  0.19641699  0.58108690  0.06609260     0.13300
H636        H  0.16199300  0.48697855  0.08682774     0.13800
C637        C  0.15446987  0.51630428  0.26942416    -0.15800
C638        C  0.19110838  0.55269483  0.25979494    -0.30900
H639        H  0.13858899  0.49073013  0.24922553     0.13300
H640        H  0.20390724  0.57897899  0.27975048     0.13800
C641        C  0.03805821  0.80127554  0.24955635    -0.15800
C642        C  0.05372247  0.84127047  0.26127793    -0.30900
H643        H  0.01100907  0.77502716  0.26450556     0.13300
H644        H  0.07973934  0.86742531  0.24535933     0.13800
C645        C  0.04902624  0.84024608  0.06705115    -0.15800
C646        C  0.05180461  0.80464607  0.07298053    -0.30900
H647        H  0.05518713  0.86272787  0.08981112     0.13300
H648        H  0.04138918  0.78043664  0.05119766     0.13800
C649        C  0.37739929  0.70460109  0.25556538    -0.15800
C650        C  0.36994102  0.73724887  0.26524253    -0.30900
H651        H  0.39584754  0.69678082  0.27400649     0.13300
H652        H  0.35451149  0.74757646  0.24578403     0.13800
C653        C  0.35580116  0.72354821  0.07015202    -0.15800
C654        C  0.37737364  0.70460037  0.08169425    -0.30900
H655        H  0.32656597  0.71812984  0.08567274     0.13300
H656        H  0.40693695  0.70964205  0.06703816     0.13800
C657        C  0.37104875  0.75354047  0.37140995     0.87200
C658        C  0.41625702  0.79297734  0.37244820    -0.53100
C659        C  0.43545488  0.82494819  0.67780870     0.10100
C660        C  0.39656385  0.80872682  0.65067775     0.21000
C661        C  0.34003763  0.77041172  0.36756411    -0.53800
C662        C  0.35754143  0.80385013  0.67632110     0.10200
C663        C  0.36921046  0.73131764  0.33431026    -0.53300
C664        C  0.38539142  0.76167400  0.64015232     0.10800
H665        H  0.43972891  0.79703622  0.39286655     0.15300
H666        H  0.40359704  0.82972011  0.62626721     0.01000
H667        H  0.31215480  0.75989785  0.38649975     0.15600
H668        H  0.36757638  0.70313899  0.66909882     0.15400
C669        C  0.03510325  0.85240509  0.62723009     0.87200
C670        C  0.49707985  0.84600501  0.63435788    -0.53100
C671        C  0.47355097  0.84568470  0.33146623     0.10100
C672        C  0.01166000  0.87067135  0.35885780     0.21000
C673        C  0.05457416  0.90001919  0.63176557    -0.53800
C674        C  0.04467846  0.90962480  0.33470228     0.10200
C675        C  0.04694589  0.83694615  0.66227071    -0.53300
C676        C  0.03512611  0.84475715  0.36457050     0.10800
H677        H  0.47568004  0.82428058  0.61346095     0.15300
H678        H  0.00082581  0.87968163  0.38530378     0.01000
H679        H  0.07941995  0.92273731  0.61256347     0.15600
H680        H  0.06641037  0.81753874  0.32988745     0.15400
C681        C  0.14015725  0.51144027  0.37611487     0.87200
C682        C  0.11825511  0.53807666  0.37607036    -0.53100
C683        C  0.08616748  0.52504232  0.68007210     0.10100
C684        C  0.09053260  0.99551293  0.65115028     0.21000
C685        C  0.09951708  0.96136960  0.37626812    -0.53800
C686        C  0.07333892  0.95568148  0.67672692     0.10200
C687        C  0.16330067  0.51891310  0.33793860    -0.53300
C688        C  0.13898832  0.01012876  0.64220620     0.10800
H689        H  0.12587387  0.56246828  0.39711695     0.15300
H690        H  0.07160729  0.98974234  0.62579406     0.01000
H691        H  0.09623923  0.93634279  0.39455700     0.15600
H692        H  0.19404268  0.52655328  0.66540182     0.15400
C693        C  0.03913234  0.59894583  0.37068093     0.87200
C694        C  0.49453189  0.56259543  0.36917723    -0.53100
C695        C  0.49885666  0.54693704  0.66561648     0.10100
C696        C  0.03120101  0.54704624  0.64844890     0.21000
C697        C  0.06378149  0.57552545  0.37578220    -0.53800
C698        C  0.05994277  0.54712803  0.67992964     0.10200
C699        C  0.05675828  0.62395155  0.33453210    -0.53300
C700        C  0.05022575  0.59500333  0.63900050     0.10800
H701        H  0.46669823  0.55715050  0.38664673     0.15300
H702        H  0.02896482  0.52688702  0.62385545     0.01000
H703        H  0.07718859  0.57680304  0.40251059     0.15600
H704        H  0.06517375  0.65379724  0.66759639     0.15400
C705        C  0.39711778  0.51069209  0.61603104     0.87200
C706        C  0.44584795  0.53000692  0.61920019    -0.53100
C707        C  0.44892445  0.51200995  0.32208336     0.10100
C708        C  0.40819322  0.97972869  0.34485073     0.21000
C709        C  0.37084668  0.95759079  0.62172231    -0.53800
C710        C  0.37769677  0.94312679  0.31812782     0.10200
C711        C  0.38110767  0.52237622  0.65297239    -0.53300
C712        C  0.38421073  0.50626500  0.35483144     0.10800
H713        H  0.46959102  0.55534118  0.60113121     0.15300
H714        H  0.41652084  0.96817658  0.36986765     0.01000
H715        H  0.34684176  0.93593967  0.60232802     0.15600
H716        H  0.35981164  0.53971598  0.32383489     0.15400
C717        C  0.28259205  0.85332538  0.36949870     0.87200
C718        C  0.30414577  0.82614765  0.37157322    -0.53100
C719        C  0.33202386  0.82756789  0.67564434     0.10100
C720        C  0.33285265  0.85800198  0.64513467     0.21000
C721        C  0.32000482  0.89769061  0.36213824    -0.53800
C722        C  0.34797620  0.90123138  0.66667285     0.10200
C723        C  0.25999228  0.83986765  0.66818186    -0.53300
C724        C  0.28402637  0.84188868  0.63690489     0.10800
H725        H  0.30168599  0.81033036  0.39745144     0.15300
H726        H  0.35325529  0.86063761  0.61994894     0.01000
H727        H  0.32517076  0.92508515  0.37906422     0.15600
H728        H  0.22532333  0.82830785  0.66798497     0.15400
Fe729      Fe  0.04995107  0.72045644  0.49969106     1.65800
Fe730      Fe  0.15109253  0.73197742  0.50946507     1.73200
Fe731      Fe  0.13947420  0.82050077  0.50121637     1.54400
O732        O  0.10037034  0.82030477  0.45847780    -0.81000
O733        O  0.18859299  0.77340163  0.55104305    -0.79300
O734        O  0.04471777  0.75411396  0.45607663    -0.83500
O735        O  0.03657000  0.75371811  0.53888502    -0.78400
O736        O  0.18389246  0.82597728  0.45977860    -0.80100
O737        O  0.11104751  0.68833425  0.55002628    -0.82900
C738        C  0.05775237  0.79077450  0.55242340     0.97900
C739        C  0.06570121  0.79194036  0.44365288     1.05300
O740        O  0.11349722  0.75772068  0.50393677    -1.11900
O741        O  0.12151247  0.68957144  0.46740297    -0.74300
O742        O  0.05695430  0.68403162  0.46004088    -0.77800
O743        O  0.09596549  0.81857639  0.54150083    -0.78500
C744        C  0.08679648  0.67631047  0.45029116     0.96800
O745        O  0.04563429  0.68060363  0.54196669    -0.76400
O746        O  0.19331408  0.77000337  0.46852084    -0.81600
C747        C  0.19920054  0.81165794  0.55954997     0.99400
C748        C  0.20029736  0.80270049  0.45064472     1.05300
O749        O  0.18334239  0.83172435  0.54348988    -0.77300
C750        C  0.07072864  0.67133657  0.55839420     1.03600
Fe751      Fe  0.37059305  0.61629483  0.49978837     1.65800
Fe752      Fe  0.26486422  0.53299795  0.49969560     1.73200
Fe753      Fe  0.28596680  0.63657328  0.50667263     1.54400
O754        O  0.32843464  0.67412871  0.54743116    -0.81000
O755        O  0.23007271  0.54024690  0.46066233    -0.79300
O756        O  0.38215278  0.65900203  0.54515780    -0.83500
O757        O  0.38473666  0.66304484  0.46133223    -0.78400
O758        O  0.24081046  0.60269826  0.54891058    -0.80100
O759        O  0.29861645  0.52331099  0.45497511    -0.82900
C760        C  0.36404023  0.68052922  0.45038649     0.97900
C761        C  0.36388661  0.67932189  0.55923903     1.05300
O762        O  0.30721081  0.59528387  0.50242395    -1.11900
O763        O  0.29536313  0.51791802  0.53828409    -0.74300
O764        O  0.36408961  0.57130370  0.53666530    -0.77800
O765        O  0.32818434  0.67367144  0.46536290    -0.78500
C766        C  0.33400533  0.53554664  0.54867249     0.96800
O767        O  0.36706750  0.57688462  0.45409051    -0.76400
O768        O  0.22399857  0.53445882  0.54298221    -0.81600
C769        C  0.22472570  0.57020507  0.44994298     0.99400
C770        C  0.21935467  0.56387415  0.55911622     1.05300
O771        O  0.24198419  0.60679124  0.46516677    -0.77300
C772        C  0.33668082  0.54268935  0.44011563     1.03600
C773        C  0.25513368  0.84976338  0.40379868    -0.15800
C774        C  0.22611168  0.81082000  0.41617225    -0.30900
H775        H  0.26051825  0.87811953  0.41940551     0.13300
H776        H  0.22281463  0.78280240  0.40119734     0.13800
C777        C  0.26242459  0.82713591  0.60000363    -0.15800
C778        C  0.22895887  0.83316001  0.59103469    -0.30900
H779        H  0.27228710  0.80913356  0.58133471     0.13300
H780        H  0.22216634  0.85444484  0.60831638     0.13800
C781        C  0.34430142  0.51386419  0.57659174    -0.15800
C782        C  0.38564004  0.52616458  0.58287904    -0.30900
H783        H  0.31809114  0.48914275  0.59349197     0.13300
H784        H  0.41170441  0.54999682  0.56521564     0.13800
C785        C  0.37642544  0.51871918  0.39378030    -0.15800
C786        C  0.34366734  0.52657781  0.40298723    -0.30900
H787        H  0.39782860  0.52093875  0.41543194     0.13300
H788        H  0.31956779  0.51993680  0.38240174     0.13800
C789        C  0.08168369  0.65201937  0.41671580    -0.15800
C790        C  0.04243390  0.62616029  0.40334756    -0.30900
H791        H  0.11071455  0.65423134  0.40316253     0.12700
H792        H  0.01312688  0.62252578  0.41754073     0.13800
C793        C  0.05178229  0.64200979  0.59040339    -0.15800
C794        C  0.06468940  0.61479676  0.60149817    -0.30900
H795        H  0.02618460  0.64387353  0.60658883     0.13300
H796        H  0.08756768  0.60936063  0.58457776     0.13800
C797        C  0.19775035  0.56182048  0.41787969    -0.15800
C798        C  0.16922739  0.52143559  0.40816531    -0.30900
H799        H  0.20086928  0.58873822  0.40237613     0.13300
H800        H  0.16519581  0.49495935  0.42496120     0.13800
C801        C  0.15313750  0.51804686  0.60049598    -0.15800
C802        C  0.19125573  0.55436830  0.59348458    -0.30900
H803        H  0.13773066  0.49439464  0.57869058     0.13300
H804        H  0.20369359  0.57883747  0.61509026     0.13800
C805        C  0.03696798  0.80113647  0.58308397    -0.15800
C806        C  0.05098410  0.84163409  0.59222327    -0.30900
H807        H  0.01093730  0.77535350  0.59929954     0.13300
H808        H  0.07587480  0.86722292  0.57502131     0.13800
C809        C  0.04740058  0.83634355  0.40192319    -0.15800
C810        C  0.05039174  0.80106668  0.40856291    -0.30900
H811        H  0.05390944  0.85949745  0.42416656     0.13300
H812        H  0.03963684  0.77624922  0.38729218     0.13800
C813        C  0.38310418  0.70808908  0.59232438    -0.15800
C814        C  0.37695384  0.74169639  0.60173581    -0.30900
H815        H  0.40105338  0.69969487  0.61081199     0.13300
H816        H  0.36211208  0.75249854  0.58212151     0.13800
C817        C  0.35816582  0.72550766  0.40493310    -0.15800
C818        C  0.38133235  0.70900920  0.41796587    -0.30900
H819        H  0.32802897  0.71871837  0.41961368     0.13300
H820        H  0.41174351  0.71530920  0.40414048     0.13800
C821        C  0.38073497  0.75961509  0.70788636     0.87200
C822        C  0.42598028  0.79906799  0.70791073    -0.53100
C823        C  0.42518794  0.81758034  0.00820297     0.10100
C824        C  0.38763652  0.80237106  0.98008640     0.21000
C825        C  0.34949939  0.77638929  0.70485318    -0.53800
C826        C  0.34817521  0.79769966  0.00480684     0.10200
C827        C  0.37772925  0.73693305  0.67079227    -0.53300
C828        C  0.37669523  0.75544861  0.96926566     0.10800
H829        H  0.44992571  0.80363213  0.72801875     0.15300
H830        H  0.39581534  0.82399049  0.95594300     0.01000
H831        H  0.32210951  0.76563395  0.72431891     0.15600
H832        H  0.35793772  0.69634928  0.99770878     0.15400
C833        C  0.03651725  0.85476567  0.96205175     0.87200
C834        C  0.48639942  0.83539218  0.96488996    -0.53100
C835        C  0.48207374  0.85456651  0.66701870     0.10100
C836        C  0.01052590  0.87333824  0.68926773     0.21000
C837        C  0.05626486  0.90245783  0.96707014    -0.53800
C838        C  0.04310678  0.91190875  0.66427465     0.10200
C839        C  0.04892242  0.83895197  0.99652903    -0.53300
C840        C  0.03427493  0.84776632  0.69526349     0.10800
H841        H  0.46482006  0.81430988  0.94379114     0.15300
H842        H  0.99994420  0.88283347  0.71558631     0.01000
H843        H  0.08029854  0.92529990  0.94748643     0.15600
H844        H  0.06537698  0.82030825  0.66078346     0.15400
C845        C  0.13570946  0.50534291  0.70662224     0.87200
C846        C  0.11348978  0.53186588  0.70850713    -0.53100
C847        C  0.08805016  0.52458498  0.01096739     0.10100
C848        C  0.09137426  0.99799422  0.98479472     0.21000
C849        C  0.09752887  0.96240248  0.70712200    -0.53800
C850        C  0.07308491  0.95893477  0.01179200     0.10200
C851        C  0.15944990  0.51519373  0.66870326    -0.53300
C852        C  0.13928240  0.01043245  0.97650202     0.10800
H853        H  0.12016081  0.55429908  0.73116189     0.15300
H854        H  0.07248100  0.99194997  0.95933735     0.01000
H855        H  0.09182811  0.93711304  0.72619095     0.15600
H856        H  0.19602133  0.52638616  0.99729499     0.15400
C857        C  0.03509351  0.59465859  0.70546364     0.87200
C858        C  0.50046288  0.57134831  0.69565929    -0.53100
C859        C  0.49143937  0.53666584  0.00240355     0.10100
C860        C  0.03367703  0.54804871  0.97957048     0.21000
C861        C  0.05990821  0.57119711  0.70993976    -0.53800
C862        C  0.06351523  0.54860909  0.01028368     0.10200
C863        C  0.05235359  0.61949203  0.66920593    -0.53300
C864        C  0.05040887  0.59591099  0.97035760     0.10800
H865        H  0.47209304  0.56879403  0.71040380     0.15300
H866        H  0.03141162  0.52810582  0.95479305     0.01000
H867        H  0.07510312  0.57369766  0.73597446     0.15600
H868        H  0.06381454  0.65386256  0.99971226     0.15400
C869        C  0.39105635  0.50556944  0.95229394     0.87200
C870        C  0.43915035  0.52156638  0.95593649    -0.53100
C871        C  0.45690245  0.51771942  0.65025136     0.10100
C872        C  0.41072445  0.98146151  0.67955937     0.21000
C873        C  0.36939379  0.95805416  0.95436007    -0.53800
C874        C  0.38001531  0.94411858  0.65328150     0.10200
C875        C  0.37605294  0.51883835  0.98891888    -0.53300
C876        C  0.39193393  0.50995959  0.68439777     0.10800
H877        H  0.46404555  0.54590202  0.93780443     0.15300
H878        H  0.41934409  0.97070873  0.70489768     0.01000
H879        H  0.34657596  0.93755522  0.93369050     0.15600
H880        H  0.36409348  0.54041955  0.65393185     0.15400
C881        C  0.28513424  0.85369953  0.70397931     0.87200
C882        C  0.30684934  0.82665137  0.70630692    -0.53100
C883        C  0.32609925  0.82470369  0.00556763     0.10100
C884        C  0.32813237  0.85650552  0.97582591     0.21000
C885        C  0.32244292  0.89825341  0.69702796    -0.53800
C886        C  0.34367612  0.89948208  0.99799744     0.10200
C887        C  0.25562986  0.83914457  0.99926371    -0.53300
C888        C  0.27968758  0.84144557  0.96786770     0.10800
H889        H  0.30369872  0.81065562  0.73221379     0.15300
H890        H  0.34835181  0.85920657  0.95049069     0.01000
H891        H  0.32716502  0.92557253  0.71387911     0.15600
H892        H  0.22105809  0.82808547  0.99913570     0.15400
Fe893      Fe  0.04805843  0.72275872  0.83087788     1.65800
Fe894      Fe  0.14831636  0.73310282  0.84136086     1.73200
Fe895      Fe  0.13824873  0.82261288  0.83184850     1.54400
O896        O  0.10052859  0.82269332  0.78826255    -0.81000
O897        O  0.18668116  0.77572442  0.88166996    -0.79300
O898        O  0.04316471  0.75739329  0.78750032    -0.83500
O899        O  0.03554154  0.75631842  0.87078349    -0.78400
O900        O  0.18381992  0.82733011  0.79149521    -0.80100
O901        O  0.10889825  0.69137896  0.88302259    -0.82900
C902        C  0.05662150  0.79380119  0.88366285     0.97900
C903        C  0.06506671  0.79486205  0.77425222     1.05300
O904        O  0.11156243  0.75961513  0.83505593    -1.11900
O905        O  0.11753152  0.68871384  0.80082140    -0.74300
O906        O  0.05484150  0.68616432  0.79064236    -0.77800
O907        O  0.09422915  0.82180048  0.87149922    -0.78500
C908        C  0.08354049  0.67611468  0.78276261     0.96800
O909        O  0.04313295  0.68180624  0.87315112    -0.76400
O910        O  0.18996121  0.76929399  0.79961412    -0.81600
C911        C  0.19667704  0.81369750  0.89056050     0.99400
C912        C  0.19901879  0.80295156  0.78235119     1.05300
O913        O  0.18067702  0.83371769  0.87484134    -0.77300
C914        C  0.06838057  0.67337763  0.89055961     1.03600
Fe915      Fe  0.37013424  0.61172314  0.83074230     1.65800
Fe916      Fe  0.26463063  0.52792503  0.82894984     1.73200
Fe917      Fe  0.28500253  0.63129428  0.83420550     1.54400
O918        O  0.32570051  0.66919361  0.87560469    -0.81000
O919        O  0.22773022  0.53350741  0.79052493    -0.79300
O920        O  0.38025929  0.65541184  0.87501543    -0.83500
O921        O  0.38506514  0.65766285  0.79119287    -0.78400
O922        O  0.23911492  0.59736536  0.87609254    -0.80100
O923        O  0.29890409  0.51948989  0.78372169    -0.82900
C924        C  0.36553772  0.67631621  0.78012515     0.97900
C925        C  0.36103242  0.67515385  0.88827411     1.05300
O926        O  0.30665628  0.59033681  0.83150217    -1.11900
O927        O  0.29561669  0.51315142  0.86730506    -0.74300
O928        O  0.36311118  0.56825962  0.86961908    -0.77800
O929        O  0.32887752  0.66900650  0.79371098    -0.78500
C930        C  0.33304000  0.53191852  0.88038939     0.96800
O931        O  0.36810314  0.57127247  0.78624538    -0.76400
O932        O  0.22483791  0.52966849  0.87313923    -0.81600
C933        C  0.22316333  0.56349672  0.77857228     0.99400
C934        C  0.21946843  0.55920120  0.88815592     1.05300
O935        O  0.24217026  0.60093296  0.79207969    -0.77300
C936        C  0.33787898  0.53826451  0.77058407     1.03600
C937        C  0.25697648  0.85003296  0.73775401    -0.15800
C938        C  0.22634338  0.81116279  0.74880704    -0.30900
H939        H  0.26247065  0.87825507  0.75364424     0.13300
H940        H  0.22290550  0.78322895  0.73356886     0.13800
C941        C  0.25864255  0.82769603  0.93095885    -0.15800
C942        C  0.22607160  0.83485274  0.92201716    -0.30900
H943        H  0.26806285  0.80937755  0.91224554     0.13300
H944        H  0.21961344  0.85632241  0.93936938     0.13800
C945        C  0.34142772  0.51080075  0.91019292    -0.15800
C946        C  0.38205466  0.52253577  0.91858989    -0.30900
H947        H  0.31409415  0.48617903  0.92622479     0.13300
H948        H  0.40923157  0.54603493  0.90160923     0.13800
C949        C  0.38314654  0.52150485  0.72345671    -0.15800
C950        C  0.34653326  0.52267478  0.73365838    -0.30900
H951        H  0.40695916  0.52841444  0.74435518     0.13300
H952        H  0.32086632  0.51133117  0.71375795     0.13800
C953        C  0.07809473  0.64956274  0.75048278    -0.15800
C954        C  0.03875251  0.62238025  0.73801784    -0.30900
H955        H  0.10704280  0.65140212  0.73713192     0.12700
H956        H  0.00960269  0.61906424  0.75225911     0.13800
C957        C  0.04978769  0.64373728  0.92265839    -0.15800
C958        C  0.06286918  0.61610645  0.93270616    -0.30900
H959        H  0.02498298  0.64593609  0.93978831     0.13300
H960        H  0.08483023  0.61055416  0.91457587     0.13800
C961        C  0.19501156  0.55445133  0.74719234    -0.15800
C962        C  0.16504810  0.51419156  0.73838939    -0.30900
H963        H  0.19824717  0.58123830  0.73137744     0.13300
H964        H  0.16066975  0.48753817  0.75510712     0.13800
C965        C  0.15461550  0.51573492  0.93166037    -0.15800
C966        C  0.19318694  0.55104922  0.92353887    -0.30900
H967        H  0.13776592  0.49201163  0.91024359     0.13300
H968        H  0.20718273  0.57594535  0.94466491     0.13800
C969        C  0.03668588  0.80410335  0.91540024    -0.15800
C970        C  0.05182650  0.84439814  0.92619844    -0.30900
H971        H  0.01041668  0.77813942  0.93124549     0.13300
H972        H  0.07708362  0.87024868  0.90948781     0.13800
C973        C  0.04632650  0.83914572  0.73267360    -0.15800
C974        C  0.05000362  0.80415139  0.73907405    -0.30900
H975        H  0.05199452  0.86181015  0.75518000     0.13300
H976        H  0.04003324  0.77967437  0.71755032     0.13800
C977        C  0.37873792  0.70398370  0.92151098    -0.15800
C978        C  0.37066623  0.73643682  0.93059003    -0.30900
H979        H  0.39667005  0.69625094  0.94060882     0.13300
H980        H  0.35576439  0.74666270  0.91051531     0.13800
C981        C  0.36839117  0.73163615  0.74152871    -0.15800
C982        C  0.38570336  0.70749720  0.74967562    -0.30900
H983        H  0.34196465  0.72952242  0.75948260     0.13300
H984        H  0.41284989  0.70929807  0.73305148     0.13800
C985        C  0.87036120  0.24936520  0.03552287     0.87200
C986        C  0.91639403  0.28765371  0.03612332    -0.53100
C987        C  0.93378224  0.31878879  0.34434381     0.10100
C988        C  0.89594259  0.30488082  0.31677674     0.21000
C989        C  0.84084693  0.26804721  0.03211062    -0.53800
C990        C  0.85736411  0.30106487  0.34204593     0.10200
C991        C  0.86700360  0.22686868  0.99828138    -0.53300
C992        C  0.88325749  0.25776089  0.30564619     0.10800
H993        H  0.93979401  0.29061207  0.05618085     0.15300
H994        H  0.90430688  0.32674413  0.29279130     0.01000
H995        H  0.81305358  0.25805592  0.05109272     0.15600
H996        H  0.86309425  0.19800354  0.33352783     0.15400
C997        C  0.54417990  0.36104477  0.29344674     0.87200
C998        C  0.99421842  0.33483375  0.30052113    -0.53100
C999        C  0.97459009  0.33850527  0.99455688     0.10100
C1000       C  0.51071796  0.37121686  0.02414139     0.21000
C1001       C  0.56560750  0.40848596  0.29890912    -0.53800
C1002       C  0.54411832  0.41003985  0.99976897     0.10200
C1003       C  0.55458907  0.34401729  0.32811073    -0.53300
C1004       C  0.53299215  0.34408618  0.02935922     0.10800
H1005       H  0.97215342  0.31387197  0.27963511     0.15300
H1006       H  0.50036605  0.38036957  0.05076734     0.01000
H1007       H  0.59024981  0.43067363  0.27943444     0.15600
H1008       H  0.56136462  0.31454973  0.99400281     0.15400
C1009       C  0.63722415  0.00760531  0.04376581     0.87200
C1010       C  0.61722697  0.03606119  0.04428614    -0.53100
C1011       C  0.58978927  0.03272130  0.34670898     0.10100
C1012       C  0.58734253  0.50145904  0.31322954     0.21000
C1013       C  0.59935787  0.46182989  0.04060671    -0.53800
C1014       C  0.58153679  0.46685024  0.34096561     0.10200
C1015       C  0.66092801  0.01511972  0.00589255    -0.53300
C1016       C  0.63054752  0.51469616  0.29043428     0.10800
H1017       H  0.62436247  0.05898213  0.06656563     0.15300
H1018       H  0.55844273  0.49060715  0.29602193     0.01000
H1019       H  0.59570783  0.43679307  0.05911275     0.15600
H1020       H  0.69407983  0.02731028  0.33621250     0.15400
C1021       C  0.53648844  0.09642994  0.04159383     0.87200
C1022       C  0.00657282  0.06844577  0.03143963    -0.53100
C1023       C  0.99255341  0.03946245  0.33571104     0.10100
C1024       C  0.53504894  0.05337560  0.31306591     0.21000
C1025       C  0.56471644  0.07643168  0.04497435    -0.53800
C1026       C  0.56593827  0.05698324  0.34405375     0.10200
C1027       C  0.54995589  0.12023627  0.00464638    -0.53300
C1028       C  0.55017106  0.10018333  0.30155685     0.10800
H1029       H  0.98116890  0.06571004  0.05102815     0.15300
H1030       H  0.53286388  0.03224460  0.28927792     0.01000
H1031       H  0.58178916  0.08110340  0.07032652     0.15600
H1032       H  0.56257356  0.15938985  0.32776533     0.15400
C1033       C  0.89246130  0.00614082  0.28480702     0.87200
C1034       C  0.94077257  0.02390119  0.28872305    -0.53100
C1035       C  0.95434755  0.01274630  0.99193222     0.10100
C1036       C  0.90576944  0.47612404  0.01008318     0.21000
C1037       C  0.87082248  0.45658705  0.28539761    -0.53800
C1038       C  0.87554282  0.44060454  0.98229019     0.10200
C1039       C  0.87633340  0.01822932  0.32144221    -0.53300
C1040       C  0.89112626  0.00912951  0.02615609     0.10800
H1041       H  0.96533499  0.04896267  0.27092117     0.15300
H1042       H  0.91324593  0.46346107  0.03486294     0.01000
H1043       H  0.84701939  0.43499600  0.26585049     0.15600
H1044       H  0.86598918  0.04182475  0.99529442     0.15400
C1045       C  0.78276535  0.34974693  0.03418931     0.87200
C1046       C  0.80655940  0.32473854  0.03639183    -0.53100
C1047       C  0.83496110  0.32753052  0.34226929     0.10100
C1048       C  0.83380198  0.35622963  0.31109444     0.21000
C1049       C  0.81817816  0.39438257  0.02546747    -0.53800
C1050       C  0.84826986  0.40024120  0.33099971     0.10200
C1051       C  0.76142730  0.33663125  0.33643493    -0.53300
C1052       C  0.78458516  0.33842799  0.30451504     0.10800
H1053       H  0.80625165  0.31062203  0.06268088     0.15300
H1054       H  0.85320771  0.35817160  0.28539859     0.01000
H1055       H  0.82285210  0.42174788  0.04220460     0.15600
H1056       H  0.72658111  0.32424822  0.33723961     0.15400
Fe1057     Fe  0.55428082  0.23030857  0.16237656     1.65800
Fe1058     Fe  0.65019378  0.23274790  0.17591209     1.73200
Fe1059     Fe  0.64821455  0.32570137  0.16790805     1.54400
O1060       O  0.61818164  0.32830666  0.12066092    -0.81000
O1061       O  0.69334761  0.27578124  0.21427662    -0.79300
O1062       O  0.55192630  0.27181921  0.12299524    -0.83500
O1063       O  0.54292921  0.26056989  0.20534263    -0.78400
O1064       O  0.69662622  0.32917379  0.13141673    -0.80100
O1065       O  0.61018923  0.19604914  0.21898476    -0.82900
C1066       C  0.56386782  0.29865420  0.21667227     0.97900
C1067       C  0.58046260  0.30680913  0.10802368     1.05300
O1068       O  0.61756252  0.26309546  0.16931296    -1.11900
O1069       O  0.61426532  0.18649882  0.13792230    -0.74300
O1070       O  0.56200386  0.19813000  0.11895032    -0.77800
O1071       O  0.60110042  0.32650531  0.20341227    -0.78500
C1072       C  0.58547950  0.18109090  0.11548251     0.96800
O1073       O  0.54551104  0.18316144  0.20048659    -0.76400
O1074       O  0.69022051  0.26432972  0.13214065    -0.81600
C1075       C  0.70121199  0.31193696  0.22720597     0.99400
C1076       C  0.70477274  0.30082612  0.11807661     1.05300
O1077       O  0.68379924  0.33219507  0.21456991    -0.77300
C1078       C  0.56901301  0.17566109  0.22146559     1.03600
Fe1079     Fe  0.86884991  0.11300544  0.16691146     1.65800
Fe1080     Fe  0.76309439  0.02973623  0.16752138     1.73200
Fe1081     Fe  0.78440943  0.13347919  0.17257093     1.54400
O1082       O  0.82681193  0.17170296  0.21300887    -0.81000
O1083       O  0.72721418  0.03560221  0.12876225    -0.79300
O1084       O  0.88096164  0.15730623  0.21045262    -0.83500
O1085       O  0.88209997  0.15777443  0.12639609    -0.78400
O1086       O  0.73976451  0.10058459  0.21536755    -0.80100
O1087       O  0.79672217  0.01941562  0.12296797    -0.82900
C1088       C  0.86174831  0.17560167  0.11520956     0.97900
C1089       C  0.86255265  0.17735600  0.22447878     1.05300
O1090       O  0.80551223  0.09205395  0.16929512    -1.11900
O1091       O  0.79404342  0.01542783  0.20579284    -0.74300
O1092       O  0.86236703  0.06968860  0.20571737    -0.77800
O1093       O  0.82647850  0.16991567  0.13065662    -0.78500
C1094       C  0.83224581  0.03358094  0.21709838     0.96800
O1095       O  0.86569571  0.07179769  0.12348856    -0.76400
O1096       O  0.72334853  0.03232205  0.21132068    -0.81600
C1097       C  0.72238806  0.06551229  0.11716610     0.99400
C1098       C  0.71908191  0.06224442  0.22686683     1.05300
O1099       O  0.74035306  0.10263491  0.13138361    -0.77300
C1100       C  0.83546489  0.03775157  0.10939672     1.03600
C1101       C  0.75673604  0.34671068  0.06918962    -0.15800
C1102       C  0.73007171  0.30814581  0.08344368    -0.30900
H1103       H  0.76132524  0.37539741  0.08371748     0.13300
H1104       H  0.72708766  0.27993546  0.06905901     0.13800
C1105       C  0.76271483  0.32402519  0.26791760    -0.15800
C1106       C  0.72959451  0.33063694  0.25970085    -0.30900
H1107       H  0.77306358  0.30716424  0.24832848     0.13300
H1108       H  0.72251831  0.35097525  0.27806212     0.13800
C1109       C  0.84164497  0.01162877  0.24518596    -0.15800
C1110       C  0.88254382  0.02271584  0.25158491    -0.30900
H1111       H  0.81492141  0.98714164  0.26187777     0.13300
H1112       H  0.90915639  0.04621356  0.23411799     0.13800
C1113       C  0.88231345  0.02160382  0.06444503    -0.15800
C1114       C  0.84425489  0.02004935  0.07404949    -0.30900
H1115       H  0.90753756  0.03250201  0.08470234     0.13300
H1116       H  0.81800063  0.00540079  0.05465265     0.13800
C1117       C  0.57978033  0.15430336  0.08366713    -0.15800
C1118       C  0.54019910  0.12467098  0.07365074    -0.30900
H1119       H  0.60875526  0.15739792  0.06924836     0.12700
H1120       H  0.51135883  0.12004480  0.08943312     0.13800
C1121       C  0.54744369  0.14406618  0.25165689    -0.15800
C1122       C  0.56213409  0.11838378  0.26337865    -0.30900
H1123       H  0.52062064  0.14455543  0.26696360     0.13300
H1124       H  0.58685044  0.11514924  0.24716271     0.13800
C1125       C  0.69549508  0.05665848  0.08507241    -0.15800
C1126       C  0.66590682  0.01635568  0.07593023    -0.30900
H1127       H  0.69954209  0.08354927  0.06892278     0.13300
H1128       H  0.66076696  0.98971488  0.09306950     0.13800
C1129       C  0.65437197  0.01833190  0.27004846    -0.15800
C1130       C  0.69243058  0.05411262  0.26194695    -0.30900
H1131       H  0.63829808  0.99401485  0.24887100     0.13300
H1132       H  0.70555032  0.07940250  0.28281484     0.13800
C1133       C  0.54405657  0.30985468  0.24774169    -0.15800
C1134       C  0.55963935  0.35028389  0.25797299    -0.30900
H1135       H  0.51748322  0.28433033  0.26374837     0.13300
H1136       H  0.58538066  0.37575640  0.24127108     0.13800
C1137       C  0.53849484  0.32863489  0.06641623    -0.15800
C1138       C  0.57214365  0.32204563  0.07250485    -0.30900
H1139       H  0.51536555  0.32391353  0.08911087     0.13300
H1140       H  0.59741613  0.33124246  0.05081034     0.13800
C1141       C  0.88203787  0.20608706  0.25723830    -0.15800
C1142       C  0.87520467  0.23899254  0.26705193    -0.30900
H1143       H  0.90046759  0.19795669  0.27543084     0.13300
H1144       H  0.85979522  0.24965871  0.24788793     0.13800
C1145       C  0.85679872  0.22106520  0.06916815    -0.15800
C1146       C  0.87892929  0.20331540  0.08212088    -0.30900
H1147       H  0.82721797  0.21544319  0.08420948     0.13300
H1148       H  0.90882049  0.20848495  0.06800039     0.13800
C1149       C  0.87696362  0.25399637  0.37314981     0.87200
C1150       C  0.92268512  0.29245280  0.37424753    -0.53100
C1151       C  0.92628895  0.31238185  0.67569812     0.10100
C1152       C  0.88826757  0.29865921  0.64862832     0.21000
C1153       C  0.84703821  0.27220185  0.36990805    -0.53800
C1154       C  0.84989716  0.29469349  0.67444330     0.10200
C1155       C  0.87417328  0.23197203  0.33580825    -0.53300
C1156       C  0.87624215  0.25177361  0.63698763     0.10800
H1157       H  0.94599306  0.29537951  0.39439039     0.15300
H1158       H  0.89645905  0.32074377  0.62483540     0.01000
H1159       H  0.81910372  0.26190173  0.38879452     0.15600
H1160       H  0.85645137  0.19166174  0.66395690     0.15400
C1161       C  0.54073556  0.35443494  0.62892952     0.87200
C1162       C  0.98634959  0.32894976  0.63103796    -0.53100
C1163       C  0.98046998  0.34436350  0.33337919     0.10100
C1164       C  0.52026806  0.38230169  0.35587185     0.21000
C1165       C  0.56009717  0.40175762  0.63518652    -0.53800
C1166       C  0.55451933  0.42083994  0.33135846     0.10200
C1167       C  0.55154797  0.33724830  0.66346216    -0.53300
C1168       C  0.54205212  0.35488730  0.36119564     0.10800
H1169       H  0.96429667  0.30645094  0.61092102     0.15300
H1170       H  0.51026953  0.39194266  0.38241436     0.01000
H1171       H  0.58472427  0.42533095  0.61645424     0.15600
H1172       H  0.56962376  0.32415155  0.32629215     0.15400
C1173       C  0.63539042  0.01019933  0.37641017     0.87200
C1174       C  0.61564405  0.03888959  0.37616278    -0.53100
C1175       C  0.59406331  0.04471727  0.67325475     0.10100
C1176       C  0.58857256  0.49545394  0.65388830     0.21000
C1177       C  0.61662564  0.48026630  0.36271507    -0.53800
C1178       C  0.57423359  0.45667592  0.68018881     0.10200
C1179       C  0.65981458  0.01758553  0.33882261    -0.53300
C1180       C  0.63604461  0.50913433  0.64086891     0.10800
H1181       H  0.62266386  0.06197041  0.39828311     0.15300
H1182       H  0.56634768  0.48887712  0.63073416     0.01000
H1183       H  0.62030824  0.45856261  0.38065218     0.15600
H1184       H  0.69871927  0.04192621  0.67231619     0.15400
C1185       C  0.53858675  0.10305788  0.36811931     0.87200
C1186       C  0.99456477  0.06485773  0.36517033    -0.53100
C1187       C  0.99887257  0.04538423  0.66369172     0.10100
C1188       C  0.53481009  0.05751692  0.63935647     0.21000
C1189       C  0.56676607  0.08311010  0.37260200    -0.53800
C1190       C  0.57370320  0.07099952  0.66446376     0.10200
C1191       C  0.55212882  0.12567393  0.33078351    -0.53300
C1192       C  0.53908583  0.10027880  0.62563588     0.10800
H1193       H  0.96637129  0.06247433  0.38016134     0.15300
H1194       H  0.53256570  0.03517913  0.61658605     0.01000
H1195       H  0.58401776  0.08875944  0.39797489     0.15600
H1196       H  0.54519122  0.15873617  0.64947715     0.15400
C1197       C  0.89298383  0.00822094  0.61938305     0.87200
C1198       C  0.94163138  0.02751655  0.62165375    -0.53100
C1199       C  0.95049685  0.01083979  0.32005645     0.10100
C1200       C  0.90967170  0.47980272  0.34347772     0.21000
C1201       C  0.86303583  0.45301121  0.62237028    -0.53800
C1202       C  0.87979205  0.44288640  0.31694629     0.10200
C1203       C  0.87805860  0.02111666  0.65622898    -0.53300
C1204       C  0.88559609  0.00472481  0.35304493     0.10800
H1205       H  0.96479072  0.05133141  0.60213644     0.15300
H1206       H  0.91813464  0.46869712  0.36870333     0.01000
H1207       H  0.83904888  0.43136468  0.60298597     0.15600
H1208       H  0.86034543  0.03723968  0.32208801     0.15400
C1209       C  0.78845541  0.35335290  0.37121578     0.87200
C1210       C  0.81225904  0.32845592  0.37383647    -0.53100
C1211       C  0.82815330  0.32198297  0.67614921     0.10100
C1212       C  0.82817496  0.35261469  0.64619707     0.21000
C1213       C  0.82386813  0.39792405  0.36200757    -0.53800
C1214       C  0.84183300  0.39576615  0.66766508     0.10200
C1215       C  0.75504546  0.33154243  0.67020257    -0.53300
C1216       C  0.77928615  0.33494906  0.63865020     0.10800
H1217       H  0.81199964  0.31455143  0.40023684     0.15300
H1218       H  0.84834363  0.35585511  0.62068382     0.01000
H1219       H  0.82840322  0.42554939  0.37823305     0.15600
H1220       H  0.72014198  0.31871609  0.67030155     0.15400
Fe1221     Fe  0.55474417  0.23524033  0.48892312     1.65800
Fe1222     Fe  0.64700284  0.23318440  0.50678089     1.73200
Fe1223     Fe  0.64928092  0.32811820  0.50083743     1.54400
O1224       O  0.62362630  0.33448927  0.45267024    -0.81000
O1225       O  0.68867118  0.27349499  0.54744617    -0.79300
O1226       O  0.55589846  0.28087208  0.45291750    -0.83500
O1227       O  0.54184737  0.26176329  0.53372729    -0.78400
O1228       O  0.69925033  0.33178778  0.46616627    -0.80100
O1229       O  0.60310710  0.19599912  0.54752231    -0.82900
C1230       C  0.56284859  0.29875456  0.54742280     0.97900
C1231       C  0.58637561  0.31542639  0.43914394     1.05300
O1232       O  0.61713624  0.26575723  0.49939994    -1.11900
O1233       O  0.61210561  0.18952602  0.46631211    -0.74300
O1234       O  0.56554618  0.20732955  0.44384598    -0.77800
O1235       O  0.60036147  0.32759233  0.53526741    -0.78500
C1236       C  0.58690114  0.18798933  0.44165999     0.96800
O1237       O  0.54127823  0.18374026  0.52296750    -0.76400
O1238       O  0.69062026  0.26592769  0.46551530    -0.81600
C1239       C  0.69719617  0.30961145  0.56100784     0.99400
C1240       C  0.70730784  0.30332775  0.45283898     1.05300
O1241       O  0.68132705  0.33120963  0.54846615    -0.77300
C1242       C  0.56201230  0.17531849  0.54613121     1.03600
Fe1243     Fe  0.86886423  0.10946093  0.49763642     1.65800
Fe1244     Fe  0.76254993  0.02768211  0.49790951     1.73200
Fe1245     Fe  0.78603483  0.13194613  0.50315814     1.54400
O1246       O  0.82673170  0.16778099  0.54458010    -0.81000
O1247       O  0.72383275  0.03470518  0.46218052    -0.79300
O1248       O  0.88194302  0.15497199  0.54093060    -0.83500
O1249       O  0.88345322  0.15404108  0.45692404    -0.78400
O1250       O  0.74013934  0.09872261  0.54468166    -0.80100
O1251       O  0.79355019  0.01852748  0.45066797    -0.82900
C1252       C  0.86490432  0.17425930  0.44742366     0.97900
C1253       C  0.86281424  0.17419610  0.55555512     1.05300
O1254       O  0.80589826  0.08969524  0.49977147    -1.11900
O1255       O  0.79466481  0.01082245  0.53358335    -0.74300
O1256       O  0.86130347  0.06696734  0.53737925    -0.77800
O1257       O  0.83011685  0.16935465  0.46318709    -0.78500
C1258       C  0.83177773  0.02999246  0.54727107     0.96800
O1259       O  0.86396495  0.06687753  0.45415778    -0.76400
O1260       O  0.72704914  0.03135555  0.54448827    -0.81600
C1261       C  0.72198075  0.06577316  0.44897202     0.99400
C1262       C  0.72218797  0.06155275  0.55859333     1.05300
O1263       O  0.74369592  0.10358134  0.46096348    -0.77300
C1264       C  0.83262646  0.03537018  0.43796173     1.03600
C1265       C  0.76205755  0.35027672  0.40593447    -0.15800
C1266       C  0.73493301  0.31151502  0.41960701    -0.30900
H1267       H  0.76602040  0.37886862  0.42023161     0.13300
H1268       H  0.73256037  0.28351463  0.40523412     0.13800
C1269       C  0.75838708  0.32142610  0.60170125    -0.15800
C1270       C  0.72452224  0.32696917  0.59403780    -0.30900
H1271       H  0.76990098  0.30607709  0.58152433     0.13300
H1272       H  0.71646120  0.34616850  0.61297866     0.13800
C1273       C  0.84076845  0.00897206  0.57684847    -0.15800
C1274       C  0.88178082  0.02294696  0.58553428    -0.30900
H1275       H  0.81398475  0.98351614  0.59268039     0.13300
H1276       H  0.90815850  0.04722179  0.56839761     0.13800
C1277       C  0.87639410  0.01622261  0.39182824    -0.15800
C1278       C  0.84067628  0.01930049  0.40118828    -0.30900
H1279       H  0.89931683  0.02177194  0.41320808     0.13300
H1280       H  0.81565861  0.00945258  0.38081742     0.13800
C1281       C  0.58188474  0.16210680  0.40934291    -0.15800
C1282       C  0.54235162  0.13227828  0.39936174    -0.30900
H1283       H  0.61098576  0.16508236  0.39529202     0.12700
H1284       H  0.51348902  0.12780598  0.41501802     0.13800
C1285       C  0.53698339  0.14220345  0.57416509    -0.15800
C1286       C  0.55110131  0.11683698  0.58718627    -0.30900
H1287       H  0.50916936  0.14243172  0.58777873     0.13300
H1288       H  0.57710592  0.11432516  0.57248413     0.13800
C1289       C  0.69433150  0.05779454  0.41756109    -0.15800
C1290       C  0.66324034  0.01811300  0.40898336    -0.30900
H1291       H  0.69950320  0.08489420  0.40107228     0.13300
H1292       H  0.65707298  0.99124768  0.42630937     0.13800
C1293       C  0.65920150  0.02288091  0.60400328    -0.15800
C1294       C  0.69869439  0.05589926  0.59485551    -0.30900
H1295       H  0.64065618  0.99901624  0.58319316     0.13300
H1296       H  0.71454974  0.08183086  0.61481797     0.13800
C1297       C  0.54265291  0.30708567  0.58000556    -0.15800
C1298       C  0.55803390  0.34636978  0.59315543    -0.30900
H1299       H  0.51551309  0.28026071  0.59431116     0.13300
H1300       H  0.58431388  0.37311695  0.57800746     0.13800
C1301       C  0.54686002  0.33932511  0.39807456    -0.15800
C1302       C  0.58044393  0.33299967  0.40430066    -0.30900
H1303       H  0.52302073  0.33368703  0.42036306     0.13300
H1304       H  0.60649539  0.34304586  0.38323397     0.13800
C1305       C  0.88131509  0.20311328  0.58837775    -0.15800
C1306       C  0.87147302  0.23417866  0.59808476    -0.30900
H1307       H  0.90013230  0.19598165  0.60700366     0.13300
H1308       H  0.85546471  0.24368444  0.57848162     0.13800
C1309       C  0.86367782  0.22541351  0.40621446    -0.15800
C1310       C  0.88354234  0.20416087  0.41609749    -0.30900
H1311       H  0.83558827  0.22155597  0.42271997     0.13300
H1312       H  0.91195692  0.20762372  0.40041703     0.13800
C1313       C  0.86946154  0.24679814  0.70439461     0.87200
C1314       C  0.91550145  0.28548258  0.70538317    -0.53100
C1315       C  0.92769250  0.31365107  0.00591923     0.10100
C1316       C  0.88948580  0.29983140  0.97863479     0.21000
C1317       C  0.83958042  0.26516493  0.70168208    -0.53800
C1318       C  0.85131879  0.29692402  0.00418110     0.10200
C1319       C  0.86675389  0.22542943  0.66676278    -0.53300
C1320       C  0.87597690  0.25230711  0.96777895     0.10800
H1321       H  0.93907967  0.28822584  0.72512784     0.15300
H1322       H  0.89789893  0.32148211  0.95448400     0.01000
H1323       H  0.81178222  0.25458826  0.72070521     0.15600
H1324       H  0.85564173  0.19282847  0.99635350     0.15400
C1325       C  0.53520673  0.35116225  0.96150979     0.87200
C1326       C  0.98789855  0.32739490  0.96223378    -0.53100
C1327       C  0.97275064  0.33899924  0.66380841     0.10100
C1328       C  0.51478391  0.37304543  0.69159989     0.21000
C1329       C  0.55592247  0.39865692  0.96715053    -0.53800
C1330       C  0.54739977  0.41232278  0.66767835     0.10200
C1331       C  0.54585425  0.33397426  0.99608633    -0.53300
C1332       C  0.53830076  0.34707772  0.69672045     0.10800
H1333       H  0.96558007  0.30527385  0.94205989     0.15300
H1334       H  0.50390319  0.38158925  0.71826685     0.01000
H1335       H  0.58088229  0.42157485  0.94816370     0.15600
H1336       H  0.56977666  0.32040208  0.66164668     0.15400
C1337       C  0.63846005  0.02716047  0.70998455     0.87200
C1338       C  0.61764833  0.05369968  0.70449448    -0.53100
C1339       C  0.59041926  0.02961483  0.01567472     0.10100
C1340       C  0.58731802  0.49351527  0.98615774     0.21000
C1341       C  0.60159150  0.46484186  0.70848965    -0.53800
C1342       C  0.57251367  0.45426579  0.01203558     0.10200
C1343       C  0.66417230  0.03108689  0.67340317    -0.53300
C1344       C  0.63520172  0.50779868  0.97385937     0.10800
H1345       H  0.62146571  0.07734734  0.72527165     0.15300
H1346       H  0.56569327  0.48727033  0.96260520     0.01000
H1347       H  0.59855883  0.44010237  0.72703177     0.15600
H1348       H  0.69505395  0.02439186  0.00283425     0.15400
C1349       C  0.54069929  0.11045652  0.69211434     0.87200
C1350       C  0.00802148  0.07988534  0.68571216    -0.53100
C1351       C  0.99928810  0.03940804  0.00367339     0.10100
C1352       C  0.53320375  0.04870693  0.98500302     0.21000
C1353       C  0.57872586  0.10269178  0.68868265    -0.53800
C1354       C  0.56448817  0.05185698  0.01532279     0.10200
C1355       C  0.54016060  0.12687327  0.65391230    -0.53300
C1356       C  0.54820212  0.09557701  0.97476334     0.10800
H1357       H  0.98289905  0.08347981  0.70085135     0.15300
H1358       H  0.53111541  0.02831459  0.96063878     0.01000
H1359       H  0.60653740  0.12058886  0.70582557     0.15600
H1360       H  0.56012671  0.15395675  0.00236939     0.15400
C1361       C  0.89564002  0.00852168  0.95801957     0.87200
C1362       C  0.94349182  0.02485575  0.96064932    -0.53100
C1363       C  0.95401840  0.01671553  0.65268038     0.10100
C1364       C  0.90321879  0.47658444  0.67981218     0.21000
C1365       C  0.86774363  0.45640349  0.95145078    -0.53800
C1366       C  0.87215390  0.43938935  0.65395122     0.10200
C1367       C  0.88143460  0.02231044  0.99460260    -0.53300
C1368       C  0.89010192  0.00979608  0.68767158     0.10800
H1369       H  0.96701503  0.04752252  0.94087381     0.15300
H1370       H  0.91155366  0.46557705  0.70516488     0.01000
H1371       H  0.84402453  0.43622426  0.93124027     0.15600
H1372       H  0.86140688  0.03950774  0.65716793     0.15400
C1373       C  0.78052881  0.34622495  0.70580801     0.87200
C1374       C  0.80419780  0.32111785  0.70759201    -0.53100
C1375       C  0.82931509  0.32401631  0.00473618     0.10100
C1376       C  0.82829846  0.35335781  0.97396900     0.21000
C1377       C  0.81640705  0.39160171  0.69858444    -0.53800
C1378       C  0.84288307  0.39728352  0.99461585     0.10200
C1379       C  0.75576208  0.33344174  0.99933837    -0.53300
C1380       C  0.77884236  0.33532787  0.96728937     0.10800
H1381       H  0.80226113  0.30522759  0.73329063     0.15300
H1382       H  0.84781827  0.35562422  0.94826673     0.01000
H1383       H  0.82006406  0.41853555  0.71548597     0.15600
H1384       H  0.72085322  0.32065701  0.00032086     0.15400
Fe1385     Fe  0.54186100  0.21665954  0.83312654     1.65800
Fe1386     Fe  0.63961649  0.22159022  0.84153547     1.73200
Fe1387     Fe  0.63481894  0.31375923  0.83301989     1.54400
O1388       O  0.60003736  0.31476399  0.78762262    -0.81000
O1389       O  0.68478611  0.26685091  0.87806723    -0.79300
O1390       O  0.53722562  0.25386763  0.79183241    -0.83500
O1391       O  0.53251612  0.24960527  0.87477125    -0.78400
O1392       O  0.68208730  0.31701701  0.79508364    -0.80100
O1393       O  0.60292368  0.18654197  0.88678020    -0.82900
C1394       C  0.55358111  0.28801399  0.88499557     0.97900
C1395       C  0.56214236  0.28954041  0.77616487     1.05300
O1396       O  0.60556645  0.25087586  0.83610692    -1.11900
O1397       O  0.60052680  0.17181502  0.80620221    -0.74300
O1398       O  0.54559620  0.18106812  0.79114665    -0.77800
O1399       O  0.59009253  0.31552733  0.87053075    -0.78500
C1400       C  0.56813189  0.16326441  0.78679140     0.96800
O1401       O  0.53654792  0.17349627  0.87359869    -0.76400
O1402       O  0.67793472  0.25298804  0.79607264    -0.81600
C1403       C  0.69244727  0.30322033  0.89048313     0.99400
C1404       C  0.69256187  0.28994702  0.78253514     1.05300
O1405       O  0.67375593  0.32237024  0.87797849    -0.77300
C1406       C  0.56212598  0.16728303  0.89288740     1.03600
Fe1407     Fe  0.86751005  0.10714950  0.83264065     1.65800
Fe1408     Fe  0.76532250  0.02001837  0.83741941     1.73200
Fe1409     Fe  0.77905932  0.12034535  0.83461824     1.54400
O1410       O  0.82442240  0.16664334  0.87067042    -0.81000
O1411       O  0.73223017  0.01849798  0.79383102    -0.79300
O1412       O  0.87507344  0.14823771  0.87749117    -0.83500
O1413       O  0.87924498  0.15379082  0.79433429    -0.78400
O1414       O  0.74061708  0.09222192  0.88144296    -0.80100
O1415       O  0.80351212  0.00796130  0.79796431    -0.82900
C1416       C  0.85556440  0.16520338  0.77845615     0.97900
C1417       C  0.85751581  0.17069103  0.88686371     1.05300
O1418       O  0.80405257  0.08265269  0.83490263    -1.11900
O1419       O  0.79492638  0.01476865  0.88134344    -0.74300
O1420       O  0.86439736  0.06337141  0.87017328    -0.77800
O1421       O  0.81623553  0.15209992  0.78853197    -0.78500
C1422       C  0.83441776  0.03184303  0.88813127     0.96800
O1423       O  0.86546979  0.06887156  0.78734976    -0.76400
O1424       O  0.72055158  0.02315912  0.87629846    -0.81600
C1425       C  0.71905542  0.04271886  0.78357279     0.99400
C1426       C  0.71859308  0.05398664  0.89271605     1.05300
O1427       O  0.73038537  0.07926953  0.79836108    -0.77300
C1428       C  0.83847331  0.03040846  0.77869501     1.03600
C1429       C  0.75167064  0.34013632  0.73976884    -0.15800
C1430       C  0.72192801  0.30024443  0.74991658    -0.30900
H1431       H  0.75547045  0.36753209  0.75605771     0.13300
H1432       H  0.72000777  0.27332217  0.73397235     0.13800
C1433       C  0.75627925  0.31909339  0.93086689    -0.15800
C1434       C  0.72175358  0.32357675  0.92252560    -0.30900
H1435       H  0.76722466  0.30244034  0.91161905     0.13300
H1436       H  0.71405621  0.34370696  0.94057410     0.13800
C1437       C  0.84498527  0.01377005  0.91857633    -0.15800
C1438       C  0.88573858  0.02460317  0.92449807    -0.30900
H1439       H  0.81874313  0.99131265  0.93701546     0.13300
H1440       H  0.91202270  0.04638153  0.90575693     0.13800
C1441       C  0.88488641  0.02502878  0.72588287    -0.15800
C1442       C  0.84570652  0.01131163  0.74337855    -0.30900
H1443       H  0.91398843  0.04878623  0.73937340     0.13300
H1444       H  0.81710519  0.98584648  0.73046432     0.13800
C1445       C  0.55632556  0.13193256  0.75728518    -0.15800
C1446       C  0.54553892  0.13949953  0.72406081    -0.30900
H1447       H  0.56046717  0.10444362  0.76145031     0.12700
H1448       H  0.54417475  0.16847873  0.71938863     0.13800
C1449       C  0.54362567  0.13844614  0.92515904    -0.15800
C1450       C  0.55960336  0.11394108  0.93678221    -0.30900
H1451       H  0.51732327  0.13912524  0.94121806     0.13300
H1452       H  0.58350043  0.11015974  0.91978003     0.13800
C1453       C  0.68966643  0.02603183  0.75277057    -0.15800
C1454       C  0.66590198  0.04285136  0.74352873    -0.30900
H1455       H  0.68725613  0.99869931  0.73718790     0.13300
H1456       H  0.66792210  0.06963844  0.75975553     0.13800
C1457       C  0.65371646  0.01424409  0.93710947    -0.15800
C1458       C  0.69371769  0.04721426  0.92861972    -0.30900
H1459       H  0.63488057  0.99133151  0.91579281     0.13300
H1460       H  0.70980592  0.07183473  0.94963639     0.13800
C1461       C  0.53470567  0.29992707  0.91616366    -0.15800
C1462       C  0.55062010  0.34049307  0.92606371    -0.30900
H1463       H  0.50830253  0.27466260  0.93254887     0.13300
H1464       H  0.57625132  0.36588680  0.90922543     0.13800
C1465       C  0.54997056  0.33757550  0.73382167    -0.15800
C1466       C  0.54714108  0.29960293  0.74135375    -0.30900
H1467       H  0.56087305  0.36223669  0.75520967     0.13300
H1468       H  0.53221492  0.27387606  0.72108315     0.13800
C1469       C  0.87482384  0.19991623  0.91994770    -0.15800
C1470       C  0.86797433  0.23302241  0.92909679    -0.30900
H1471       H  0.89251910  0.19197389  0.93913405     0.13300
H1472       H  0.85334432  0.24386196  0.90931667     0.13800
C1473       C  0.85527689  0.21707736  0.73711810    -0.15800
C1474       C  0.87454772  0.19530457  0.74707573    -0.30900
H1475       H  0.82689372  0.21267737  0.75349260     0.13300
H1476       H  0.90402869  0.19997043  0.73254152     0.13800
C1477       C  0.87271592  0.75564396  0.04259632     0.87200
C1478       C  0.91839338  0.79468857  0.04216933    -0.53100
C1479       C  0.92710880  0.81601670  0.34231029     0.10100
C1480       C  0.88898142  0.80177007  0.31482564     0.21000
C1481       C  0.84222092  0.77327780  0.03940982    -0.53800
C1482       C  0.85070297  0.79902695  0.34012204     0.10200
C1483       C  0.86921381  0.73257782  0.00550555    -0.53300
C1484       C  0.87556124  0.75413438  0.30454741     0.10800
H1485       H  0.94250359  0.79878024  0.06191513     0.15300
H1486       H  0.89740269  0.82303653  0.29039043     0.01000
H1487       H  0.81534694  0.76356736  0.05925480     0.15600
H1488       H  0.85489428  0.69500828  0.33358503     0.15400
C1489       C  0.53677018  0.85424079  0.29642629     0.87200
C1490       C  0.98842748  0.83349682  0.29902152    -0.53100
C1491       C  0.97459235  0.84674762  0.99927820     0.10100
C1492       C  0.50971934  0.87247839  0.02480115     0.21000
C1493       C  0.55585511  0.90185521  0.30116506    -0.53800
C1494       C  0.54283358  0.91144745  0.00069712     0.10200
C1495       C  0.54834726  0.83876071  0.33158274    -0.53300
C1496       C  0.53315025  0.84656202  0.03035661     0.10800
H1497       H  0.96674050  0.81239288  0.27798153     0.15300
H1498       H  0.49891270  0.88146882  0.05127129     0.01000
H1499       H  0.58054978  0.92488933  0.28208238     0.15600
H1500       H  0.56451037  0.81957105  0.99547040     0.15400
C1501       C  0.63804764  0.50720650  0.04110650     0.87200
C1502       C  0.61834378  0.53595548  0.04154926    -0.53100
C1503       C  0.59687006  0.54026917  0.33760941     0.10100
C1504       C  0.58691997  0.99715918  0.31985867     0.21000
C1505       C  0.59858719  0.96213247  0.04245586    -0.53800
C1506       C  0.57114683  0.95767050  0.34567547     0.10200
C1507       C  0.66109231  0.51418611  0.00300719    -0.53300
C1508       C  0.63499699  0.01125473  0.30882686     0.10800
H1509       H  0.62685056  0.56009561  0.06298628     0.15300
H1510       H  0.56622049  0.99103043  0.29563949     0.01000
H1511       H  0.59447026  0.93685960  0.06085609     0.15600
H1512       H  0.69794558  0.53659043  0.30117600     0.15400
C1513       C  0.53867661  0.59719501  0.03959397     0.87200
C1514       C  0.99208725  0.55845718  0.03100807    -0.53100
C1515       C  0.99197061  0.53847034  0.33368647     0.10100
C1516       C  0.53557146  0.55673340  0.31507473     0.21000
C1517       C  0.56492656  0.57510606  0.04314433    -0.53800
C1518       C  0.56768950  0.55822119  0.34335347     0.10200
C1519       C  0.55490788  0.62289658  0.00362545    -0.53300
C1520       C  0.55081735  0.60412361  0.30815859     0.10800
H1521       H  0.96415654  0.55483666  0.04736049     0.15300
H1522       H  0.53356439  0.53859446  0.28909740     0.01000
H1523       H  0.57975929  0.57691161  0.06922378     0.15600
H1524       H  0.56381952  0.66059271  0.33992774     0.15400
C1525       C  0.89127507  0.50509034  0.28381161     0.87200
C1526       C  0.93960664  0.52220168  0.28713928    -0.53100
C1527       C  0.94667160  0.50605790  0.98580261     0.10100
C1528       C  0.91454946  0.98322416  0.01755206     0.21000
C1529       C  0.87277135  0.95774688  0.28547076    -0.53800
C1530       C  0.88366558  0.94615634  0.99110973     0.10200
C1531       C  0.87617252  0.51832889  0.32040295    -0.53300
C1532       C  0.88304563  0.50266334  0.01980447     0.10800
H1533       H  0.96406935  0.54670302  0.26885542     0.15300
H1534       H  0.92317261  0.97227787  0.04276536     0.01000
H1535       H  0.84931345  0.93654070  0.26550484     0.15600
H1536       H  0.86052207  0.53815959  0.98960411     0.15400
C1537       C  0.78528988  0.85721561  0.03936245     0.87200
C1538       C  0.80352679  0.82712308  0.04091456    -0.53100
C1539       C  0.82878603  0.82609498  0.33981235     0.10100
C1540       C  0.83121382  0.85722675  0.30919182     0.21000
C1541       C  0.82495091  0.90077047  0.03429104    -0.53800
C1542       C  0.84813509  0.90092586  0.33034673     0.10200
C1543       C  0.75951442  0.84237535  0.33276731    -0.53300
C1544       C  0.78290097  0.84317695  0.30138865     0.10800
H1545       H  0.79802252  0.80927180  0.06613756     0.15300
H1546       H  0.85095251  0.85868892  0.28387330     0.01000
H1547       H  0.83083411  0.92790225  0.05191868     0.15600
H1548       H  0.72516390  0.83230794  0.33275242     0.15400
Fe1549     Fe  0.54943060  0.72391968  0.16517951     1.65800
Fe1550     Fe  0.65039990  0.73577554  0.17570935     1.73200
Fe1551     Fe  0.63871514  0.82410820  0.16699503     1.54400
O1552       O  0.59943353  0.82344531  0.12422493    -0.81000
O1553       O  0.68946545  0.77864397  0.21535974    -0.79300
O1554       O  0.54476201  0.75674581  0.12074920    -0.83500
O1555       O  0.53574115  0.75779678  0.20370210    -0.78400
O1556       O  0.68323510  0.82941705  0.12599269    -0.80100
O1557       O  0.61140774  0.69554973  0.21827638    -0.82900
C1558       C  0.55738633  0.79428482  0.21822746     0.97900
C1559       C  0.56540064  0.79476910  0.10879146     1.05300
O1560       O  0.61290279  0.76136499  0.16954328    -1.11900
O1561       O  0.61981837  0.69060768  0.13588416    -0.74300
O1562       O  0.55622872  0.68611102  0.12633747    -0.77800
O1563       O  0.59560108  0.82203944  0.20745903    -0.78500
C1564       C  0.58546849  0.67694763  0.11824324     0.96800
O1565       O  0.54538402  0.68587713  0.20881031    -0.76400
O1566       O  0.69081254  0.77192733  0.13314537    -0.81600
C1567       C  0.69935590  0.81646488  0.22442801     0.99400
C1568       C  0.69858269  0.80542399  0.11612200     1.05300
O1569       O  0.68259735  0.83609690  0.20921186    -0.77300
C1570       C  0.57116883  0.67897458  0.22681187     1.03600
Fe1571     Fe  0.86560635  0.61022891  0.16523565     1.65800
Fe1572     Fe  0.76158180  0.52714375  0.16513233     1.73200
Fe1573     Fe  0.78083597  0.62907630  0.17069370     1.54400
O1574       O  0.81386447  0.65842634  0.21830237    -0.81000
O1575       O  0.72119800  0.53461552  0.13129763    -0.79300
O1576       O  0.87588246  0.65737672  0.20670124    -0.83500
O1577       O  0.87688452  0.65144509  0.12253262    -0.78400
O1578       O  0.72372748  0.58741816  0.20164606    -0.80100
O1579       O  0.79249035  0.52034669  0.11667279    -0.82900
C1580       C  0.86221502  0.67636911  0.11793195     0.97900
C1581       C  0.85330912  0.67095552  0.22519429     1.05300
O1582       O  0.80287034  0.58877896  0.16764034    -1.11900
O1583       O  0.79590409  0.51106767  0.19862665    -0.74300
O1584       O  0.85985867  0.57003032  0.20672771    -0.77800
O1585       O  0.83157831  0.67521495  0.13843141    -0.78500
C1586       C  0.83184439  0.53154384  0.21415387     0.96800
O1587       O  0.86296935  0.56638248  0.12321862    -0.76400
O1588       O  0.72652615  0.52873221  0.21280816    -0.81600
C1589       C  0.72456229  0.56571578  0.11302544     0.99400
C1590       C  0.70687045  0.55001653  0.21549825     1.05300
O1591       O  0.74911626  0.60443875  0.12201614    -0.77300
C1592       C  0.83199202  0.53627475  0.10535385     1.03600
C1593       C  0.75680671  0.85327053  0.07278462    -0.15800
C1594       C  0.72461224  0.81435392  0.08197448    -0.30900
H1595       H  0.76386065  0.88081758  0.09037095     0.13300
H1596       H  0.71953244  0.78683527  0.06511595     0.13800
C1597       C  0.76130224  0.82931977  0.26464030    -0.15800
C1598       C  0.72956147  0.83773044  0.25548023    -0.30900
H1599       H  0.76955778  0.80986135  0.24626631     0.13300
H1600       H  0.72424953  0.86015935  0.27250313     0.13800
C1601       C  0.84074413  0.50962769  0.24271272    -0.15800
C1602       C  0.88154170  0.52154709  0.25028605    -0.30900
H1603       H  0.81372851  0.48441622  0.25856888     0.13300
H1604       H  0.90826926  0.54548738  0.23319920     0.13800
C1605       C  0.87426453  0.51414345  0.05903153    -0.15800
C1606       C  0.84071567  0.52110662  0.06813039    -0.30900
H1607       H  0.89555330  0.51639129  0.08080530     0.13300
H1608       H  0.81709969  0.51446282  0.04706536     0.13800
C1609       C  0.58056160  0.65079828  0.08584458    -0.15800
C1610       C  0.54150919  0.62370934  0.07282228    -0.30900
H1611       H  0.60986562  0.65352041  0.07241263     0.12700
H1612       H  0.51203658  0.61957945  0.08706672     0.13800
C1613       C  0.55334002  0.65269778  0.26053363    -0.15800
C1614       C  0.56538784  0.62493649  0.27129902    -0.30900
H1615       H  0.52920718  0.65642367  0.27730086     0.13300
H1616       H  0.58631264  0.61776297  0.25329397     0.13800
C1617       C  0.69866947  0.55615303  0.08013127    -0.15800
C1618       C  0.66706986  0.51613533  0.07291479    -0.30900
H1619       H  0.70452928  0.58237099  0.06208200     0.13300
H1620       H  0.66043385  0.49002026  0.09141224     0.13800
C1621       C  0.62901958  0.51160485  0.24879693    -0.15800
C1622       C  0.65871411  0.52587515  0.21990160    -0.30900
H1623       H  0.59577303  0.49500029  0.23958725     0.13300
H1624       H  0.64427097  0.51834439  0.19268584     0.13800
C1625       C  0.53743878  0.80391270  0.25010147    -0.15800
C1626       C  0.55312944  0.84408399  0.26132137    -0.30900
H1627       H  0.51051712  0.77780704  0.26528998     0.13300
H1628       H  0.57895120  0.87004209  0.24508900     0.13800
C1629       C  0.54539275  0.83805882  0.06762186    -0.15800
C1630       C  0.55047797  0.80388595  0.07359035    -0.30900
H1631       H  0.55010308  0.86019056  0.09037656     0.13300
H1632       H  0.54146146  0.77976977  0.05182028     0.13800
C1633       C  0.87303545  0.70045503  0.25749838    -0.15800
C1634       C  0.86663676  0.73389649  0.26641605    -0.30900
H1635       H  0.89192832  0.69299438  0.27573930     0.13300
H1636       H  0.85097388  0.74392906  0.24693075     0.13800
C1637       C  0.86042071  0.72799392  0.07672764    -0.15800
C1638       C  0.88037024  0.70680474  0.08663924    -0.30900
H1639       H  0.83263897  0.72414572  0.09370780     0.13300
H1640       H  0.90782591  0.70939454  0.06997587     0.13800
C1641       C  0.86991891  0.75207507  0.37210162     0.87200
C1642       C  0.91594520  0.79017822  0.37258619    -0.53100
C1643       C  0.92573601  0.81743026  0.67389491     0.10100
C1644       C  0.88766524  0.80245693  0.64643560     0.21000
C1645       C  0.84044859  0.77078575  0.36852852    -0.53800
C1646       C  0.84925930  0.79915137  0.67186680     0.10200
C1647       C  0.86645966  0.72911509  0.33520364    -0.53300
C1648       C  0.87538397  0.75504043  0.63591515     0.10800
H1649       H  0.93919922  0.79347944  0.39293212     0.15300
H1650       H  0.89573831  0.82377524  0.62208695     0.01000
H1651       H  0.81295006  0.76121993  0.38772765     0.15600
H1652       H  0.85612170  0.69612262  0.66494088     0.15400
C1653       C  0.54601311  0.86393178  0.63208263     0.87200
C1654       C  0.98636892  0.83460320  0.63017766    -0.53100
C1655       C  0.97404077  0.84265221  0.33173117     0.10100
C1656       C  0.51111658  0.87470070  0.35818053     0.21000
C1657       C  0.56535649  0.91155719  0.63751114    -0.53800
C1658       C  0.54327802  0.91338244  0.33330062     0.10200
C1659       C  0.55702219  0.84777869  0.66702004    -0.53300
C1660       C  0.53538481  0.84960481  0.36445317     0.10800
H1661       H  0.96446836  0.81280460  0.60959153     0.15300
H1662       H  0.50015671  0.88396165  0.38442105     0.01000
H1663       H  0.58934013  0.93460357  0.61810321     0.15600
H1664       H  0.56709787  0.82244003  0.33033048     0.15400
C1665       C  0.65385922  0.52622238  0.35462869     0.87200
C1666       C  0.63303818  0.55430517  0.35776576    -0.53100
C1667       C  0.59291818  0.53147210  0.68062757     0.10100
C1668       C  0.59164133  0.00596693  0.65124775     0.21000
C1669       C  0.59682364  0.96500366  0.37504105    -0.53800
C1670       C  0.57608368  0.96899631  0.68042094     0.10200
C1671       C  0.66552333  0.52690129  0.31238111    -0.53300
C1672       C  0.63986310  0.01998248  0.64232639     0.10800
H1673       H  0.64569956  0.58263948  0.37531287     0.15300
H1674       H  0.57158592  0.99700150  0.62621423     0.01000
H1675       H  0.59247046  0.93989153  0.39375343     0.15600
H1676       H  0.69677568  0.52585462  0.66588973     0.15400
C1677       C  0.53967962  0.59975395  0.37544339     0.87200
C1678       C  0.99381190  0.56388681  0.36300633    -0.53100
C1679       C  0.98659179  0.53417029  0.66878696     0.10100
C1680       C  0.54378235  0.55892983  0.64718903     0.21000
C1681       C  0.56829993  0.57952781  0.37539644    -0.53800
C1682       C  0.56917473  0.55565612  0.67973222     0.10200
C1683       C  0.55272170  0.62654742  0.33985425    -0.53300
C1684       C  0.56475318  0.60744170  0.63966700     0.10800
H1685       H  0.96560323  0.56107097  0.37823941     0.15300
H1686       H  0.54222791  0.53972760  0.62205339     0.01000
H1687       H  0.58738406  0.58213528  0.39911971     0.15600
H1688       H  0.57972014  0.66525089  0.66995612     0.15400
C1689       C  0.88459755  0.50161578  0.61989287     0.87200
C1690       C  0.93297952  0.51774855  0.62280204    -0.53100
C1691       C  0.94969385  0.50956331  0.31851918     0.10100
C1692       C  0.91022581  0.98002197  0.34425872     0.21000
C1693       C  0.87489882  0.96019809  0.62144364    -0.53800
C1694       C  0.88112690  0.94342874  0.31695953     0.10200
C1695       C  0.87083089  0.51616382  0.65645153    -0.53300
C1696       C  0.88573006  0.50520713  0.35214872     0.10800
H1697       H  0.95746278  0.54158293  0.60406326     0.15300
H1698       H  0.91852790  0.96862490  0.36939010     0.01000
H1699       H  0.85096984  0.93786465  0.60234359     0.15600
H1700       H  0.86055902  0.53767588  0.32087590     0.15400
C1701       C  0.78513451  0.85564895  0.36831558     0.87200
C1702       C  0.80505898  0.82708562  0.37075038    -0.53100
C1703       C  0.82947636  0.82816576  0.67352946     0.10100
C1704       C  0.83407914  0.86161332  0.64447756     0.21000
C1705       C  0.82343144  0.89917819  0.36092106    -0.53800
C1706       C  0.85266910  0.90469040  0.66709893     0.10200
C1707       C  0.76307749  0.84874788  0.66803928    -0.53300
C1708       C  0.78646598  0.84971373  0.63653689     0.10800
H1709       H  0.80179992  0.81127951  0.39680670     0.15300
H1710       H  0.85371021  0.86323011  0.61903738     0.01000
H1711       H  0.82930968  0.92672027  0.37786813     0.15600
H1712       H  0.72895481  0.83955921  0.66789698     0.15400
Fe1713     Fe  0.55419456  0.72896547  0.50172537     1.65800
Fe1714     Fe  0.65560776  0.74104637  0.50962479     1.73200
Fe1715     Fe  0.64377668  0.82932973  0.49975765     1.54400
O1716       O  0.60320703  0.82766123  0.45769941    -0.81000
O1717       O  0.69368531  0.78382956  0.55001877    -0.79300
O1718       O  0.54722685  0.76150288  0.45784538    -0.83500
O1719       O  0.54312146  0.76413801  0.54133137    -0.78400
O1720       O  0.68673116  0.83292041  0.45766103    -0.80100
O1721       O  0.61750453  0.69920904  0.55123117    -0.82900
C1722       C  0.56490927  0.80176136  0.55391473     0.97900
C1723       C  0.56776836  0.79886967  0.44426176     1.05300
O1724       O  0.61783700  0.76650723  0.50400714    -1.11900
O1725       O  0.62451851  0.69656750  0.46911123    -0.74300
O1726       O  0.55947299  0.69027823  0.46226249    -0.77800
O1727       O  0.60213190  0.82942122  0.54095709    -0.78500
C1728       C  0.58894237  0.68162950  0.45293576     0.96800
O1729       O  0.55137697  0.69012293  0.54452852    -0.76400
O1730       O  0.69645701  0.77736664  0.46774079    -0.81600
C1731       C  0.70427610  0.82218488  0.55797166     0.99400
C1732       C  0.70280499  0.80922493  0.44904837     1.05300
O1733       O  0.68870648  0.84209095  0.54131167    -0.77300
C1734       C  0.57747559  0.68173692  0.56038309     1.03600
Fe1735     Fe  0.86445281  0.60928272  0.49790315     1.65800
Fe1736     Fe  0.75939554  0.52556806  0.49480791     1.73200
Fe1737     Fe  0.77901882  0.62826186  0.50198195     1.54400
O1738       O  0.82327667  0.66951527  0.54040053    -0.81000
O1739       O  0.72606144  0.53202360  0.45310420    -0.79300
O1740       O  0.87399991  0.65089394  0.54354259    -0.83500
O1741       O  0.87861008  0.65682521  0.45989821    -0.78400
O1742       O  0.73820103  0.59642447  0.54645648    -0.80100
O1743       O  0.79518673  0.51645346  0.45149591    -0.82900
C1744       C  0.85690520  0.67225849  0.44663808     0.97900
C1745       C  0.85683366  0.67315440  0.55495086     1.05300
O1746       O  0.80110216  0.58771934  0.49835186    -1.11900
O1747       O  0.78842556  0.51105141  0.53549649    -0.74300
O1748       O  0.85734827  0.56391838  0.53534720    -0.77800
O1749       O  0.81901731  0.66274410  0.45864780    -0.78500
C1750       C  0.82644090  0.52859030  0.54749128     0.96800
O1751       O  0.86312467  0.57095754  0.45205124    -0.76400
O1752       O  0.71743236  0.52739085  0.53752468    -0.81600
C1753       C  0.71632859  0.56008197  0.44588274     0.99400
C1754       C  0.71609183  0.55751832  0.55597691     1.05300
O1755       O  0.73075243  0.59507956  0.46374765    -0.77300
C1756       C  0.83361323  0.53667351  0.43741346     1.03600
C1757       C  0.75835040  0.85386143  0.40236012    -0.15800
C1758       C  0.72748975  0.81570155  0.41436080    -0.30900
H1759       H  0.76549285  0.88267212  0.41807859     0.13300
H1760       H  0.72240320  0.78703699  0.39939316     0.13800
C1761       C  0.76519626  0.83557322  0.59962960    -0.15800
C1762       C  0.73371873  0.84384894  0.58951187    -0.30900
H1763       H  0.77370010  0.81595016  0.58172555     0.13300
H1764       H  0.72802749  0.86636257  0.60601979     0.13800
C1765       C  0.83456876  0.50731162  0.57767499    -0.15800
C1766       C  0.87507835  0.51799062  0.58579802    -0.30900
H1767       H  0.80716305  0.48358893  0.59428110     0.13300
H1768       H  0.90218717  0.54065149  0.56824719     0.13800
C1769       C  0.87723249  0.51735044  0.39099191    -0.15800
C1770       C  0.84206778  0.52130687  0.40042039    -0.30900
H1771       H  0.89986382  0.52213728  0.41241949     0.13300
H1772       H  0.81717994  0.51198358  0.38001242     0.13800
C1773       C  0.58288668  0.65453091  0.42075610    -0.15800
C1774       C  0.54344795  0.62534045  0.40975596    -0.30900
H1775       H  0.61184418  0.65863638  0.40553935     0.12700
H1776       H  0.51441306  0.61975192  0.42574693     0.13800
C1777       C  0.56044289  0.65212790  0.59215466    -0.15800
C1778       C  0.57735782  0.62801862  0.60262275    -0.30900
H1779       H  0.53357863  0.65122113  0.60861840     0.13300
H1780       H  0.60204497  0.62573212  0.58546426     0.13800
C1781       C  0.68452965  0.55001134  0.41726343    -0.15800
C1782       C  0.69024571  0.54033767  0.38157947    -0.30900
H1783       H  0.65469716  0.54942984  0.42635800     0.13300
H1784       H  0.72073905  0.54248086  0.37218311     0.13800
C1785       C  0.65299647  0.51516828  0.60130628    -0.15800
C1786       C  0.69201196  0.54919452  0.59236467    -0.30900
H1787       H  0.63398414  0.49217527  0.58010334     0.13300
H1788       H  0.70797579  0.57368176  0.61352311     0.13800
C1789       C  0.54630002  0.81284613  0.58608933    -0.15800
C1790       C  0.56225503  0.85336990  0.59683777    -0.30900
H1791       H  0.51972787  0.78721320  0.60197683     0.13300
H1792       H  0.58790617  0.87906837  0.58028663     0.13800
C1793       C  0.54832210  0.84216621  0.40195545    -0.15800
C1794       C  0.55103334  0.80685177  0.40936687    -0.30900
H1795       H  0.55580204  0.86617629  0.42358933     0.13300
H1796       H  0.53933384  0.78128824  0.38876267     0.13800
C1797       C  0.87474596  0.70202163  0.58827479    -0.15800
C1798       C  0.86812852  0.73543565  0.59729983    -0.30900
H1799       H  0.89201085  0.69359648  0.60750605     0.13300
H1800       H  0.85390998  0.74638219  0.57719664     0.13800
C1801       C  0.85646605  0.72387079  0.40548465    -0.15800
C1802       C  0.87599174  0.70236115  0.41550548    -0.30900
H1803       H  0.82846683  0.72027416  0.42198751     0.13300
H1804       H  0.90484202  0.70617477  0.40035712     0.13800
C1805       C  0.86930374  0.75268497  0.70358662     0.87200
C1806       C  0.91497422  0.79166752  0.70419240    -0.53100
C1807       C  0.92820532  0.82003326  0.01159584     0.10100
C1808       C  0.88933698  0.80458692  0.98500044     0.21000
C1809       C  0.83892106  0.77036365  0.69978942    -0.53800
C1810       C  0.85113197  0.80098581  0.01078990     0.10200
C1811       C  0.86667805  0.73000618  0.66659187    -0.53300
C1812       C  0.87730037  0.75743418  0.97479102     0.10800
H1813       H  0.93845511  0.79555612  0.72452858     0.15300
H1814       H  0.89669091  0.82552728  0.96048819     0.01000
H1815       H  0.81145574  0.76061716  0.71906928     0.15600
H1816       H  0.85893478  0.69876007  0.00379914     0.15400
C1817       C  0.53508597  0.85283472  0.96247715     0.87200
C1818       C  0.98770994  0.83709700  0.96605530    -0.53100
C1819       C  0.97244925  0.84436510  0.66282366     0.10100
C1820       C  0.51966217  0.88348950  0.69407645     0.21000
C1821       C  0.55484330  0.90030117  0.96809592    -0.53800
C1822       C  0.55237372  0.92291609  0.66966370     0.10200
C1823       C  0.54607163  0.83619749  0.99722441    -0.53300
C1824       C  0.54361069  0.85786239  0.69998267     0.10800
H1825       H  0.96523322  0.81542561  0.94574936     0.15300
H1826       H  0.50850801  0.89225670  0.72046983     0.01000
H1827       H  0.57994262  0.92343917  0.94935316     0.15600
H1828       H  0.57524449  0.83091476  0.66559464     0.15400
C1829       C  0.64035487  0.51019556  0.70822567     0.87200
C1830       C  0.62069808  0.53885563  0.70854347    -0.53100
C1831       C  0.59077621  0.52891085  0.01332842     0.10100
C1832       C  0.58755395  0.99471178  0.98815984     0.21000
C1833       C  0.60072455  0.98101062  0.71129484    -0.53800
C1834       C  0.57219110  0.95517484  0.01357216     0.10200
C1835       C  0.66265691  0.51632979  0.66979747    -0.53300
C1836       C  0.63549299  0.00871830  0.97630591     0.10800
H1837       H  0.62943894  0.56355073  0.72950390     0.15300
H1838       H  0.56638462  0.98871552  0.96431816     0.01000
H1839       H  0.59722468  0.95849129  0.73252614     0.15600
H1840       H  0.69539799  0.52431933  0.99941102     0.15400
C1841       C  0.54600672  0.60415147  0.70550587     0.87200
C1842       C  0.98945145  0.55974320  0.69827574    -0.53100
C1843       C  0.98945784  0.53352942  0.00105056     0.10100
C1844       C  0.53621735  0.55145249  0.98162455     0.21000
C1845       C  0.56815086  0.57829798  0.71041192    -0.53800
C1846       C  0.56549791  0.55185814  0.01276683     0.10200
C1847       C  0.56652947  0.63083625  0.67055345    -0.53300
C1848       C  0.55354940  0.59944244  0.97284492     0.10800
H1849       H  0.96163972  0.55718012  0.71402721     0.15300
H1850       H  0.53456331  0.53193193  0.95670473     0.01000
H1851       H  0.58007308  0.57732248  0.73735891     0.15600
H1852       H  0.56670970  0.65704994  0.00270947     0.15400
C1853       C  0.88969912  0.50509229  0.95143076     0.87200
C1854       C  0.93759535  0.52043182  0.95490846    -0.53100
C1855       C  0.94337053  0.50543192  0.65427072     0.10100
C1856       C  0.91544237  0.98591645  0.67874119     0.21000
C1857       C  0.87486649  0.96018070  0.95968977    -0.53800
C1858       C  0.88508396  0.94754729  0.65299430     0.10200
C1859       C  0.87491510  0.51772082  0.98850546    -0.53300
C1860       C  0.88049512  0.50320455  0.68833762     0.10800
H1861       H  0.96266322  0.54504031  0.93709786     0.15300
H1862       H  0.92574311  0.97639766  0.70381935     0.01000
H1863       H  0.85081957  0.93888510  0.94015480     0.15600
H1864       H  0.85619336  0.53636809  0.65672430     0.15400
C1865       C  0.78805610  0.85920083  0.70401016     0.87200
C1866       C  0.80601509  0.82878955  0.70479316    -0.53100
C1867       C  0.82862102  0.82748814  0.01057149     0.10100
C1868       C  0.83328118  0.86067960  0.98115312     0.21000
C1869       C  0.82804299  0.90246668  0.69799755    -0.53800
C1870       C  0.85062392  0.90336754  0.00411803     0.10200
C1871       C  0.76142715  0.84688955  0.00298514    -0.53300
C1872       C  0.78566579  0.84830918  0.97205445     0.10800
H1873       H  0.80148064  0.81114912  0.73000926     0.15300
H1874       H  0.85384940  0.86290616  0.95621404     0.01000
H1875       H  0.83491517  0.92970153  0.71573807     0.15600
H1876       H  0.72725032  0.83736534  0.00222995     0.15400
Fe1877     Fe  0.55446534  0.72609565  0.83214042     1.65800
Fe1878     Fe  0.65562622  0.73914799  0.84443665     1.73200
Fe1879     Fe  0.64262957  0.82692271  0.83561060     1.54400
O1880       O  0.60437791  0.82725464  0.79262930    -0.81000
O1881       O  0.69365366  0.78218398  0.88474262    -0.79300
O1882       O  0.54910395  0.76100652  0.78905664    -0.83500
O1883       O  0.53924305  0.75743944  0.87178099    -0.78400
O1884       O  0.68854174  0.83346272  0.79480604    -0.80100
O1885       O  0.61634036  0.69721072  0.88631896    -0.82900
C1886       C  0.55944510  0.79434496  0.88578485     0.97900
C1887       C  0.56978248  0.79935791  0.77752410     1.05300
O1888       O  0.61756119  0.76415794  0.83778590    -1.11900
O1889       O  0.62584427  0.69385774  0.80435334    -0.74300
O1890       O  0.56380209  0.69153235  0.79206448    -0.77800
O1891       O  0.59748524  0.82310634  0.87523400    -0.78500
C1892       C  0.59256156  0.68138798  0.78537648     0.96800
O1893       O  0.55006818  0.68507301  0.87410061    -0.76400
O1894       O  0.69641685  0.77618868  0.80209984    -0.81600
C1895       C  0.70265966  0.81976573  0.89397082     0.99400
C1896       C  0.70413145  0.80959979  0.78485615     1.05300
O1897       O  0.68555448  0.83891638  0.87853580    -0.77300
C1898       C  0.57547327  0.67795140  0.89269362     1.03600
Fe1899     Fe  0.86871473  0.61577518  0.83337260     1.65800
Fe1900     Fe  0.76328132  0.53228144  0.83339462     1.73200
Fe1901     Fe  0.78370608  0.63561039  0.83916400     1.54400
O1902       O  0.82448124  0.67233963  0.88091832    -0.81000
O1903       O  0.72745060  0.53850985  0.79504622    -0.79300
O1904       O  0.87980582  0.65951445  0.87786806    -0.83500
O1905       O  0.88206407  0.66110043  0.79344155    -0.78400
O1906       O  0.73748449  0.60133120  0.88065158    -0.80100
O1907       O  0.79651159  0.52295129  0.78818372    -0.82900
C1908       C  0.86195959  0.67943450  0.78294326     0.97900
C1909       C  0.86032613  0.67841688  0.89252773     1.05300
O1910       O  0.80533351  0.59459016  0.83570242    -1.11900
O1911       O  0.79434636  0.51784302  0.87136494    -0.74300
O1912       O  0.86258824  0.57208129  0.87191957    -0.77800
O1913       O  0.82684092  0.67369507  0.79866562    -0.78500
C1914       C  0.83228854  0.53599936  0.88320005     0.96800
O1915       O  0.86553729  0.57518629  0.78854638    -0.76400
O1916       O  0.72352233  0.53383974  0.87730452    -0.81600
C1917       C  0.72387886  0.56874062  0.78241989     0.99400
C1918       C  0.71767582  0.56302080  0.89226353     1.05300
O1919       O  0.74176762  0.60592644  0.79645024    -0.77300
C1920       C  0.83484675  0.54169177  0.77388855     1.03600
C1921       C  0.76087199  0.85626953  0.73854069    -0.15800
C1922       C  0.72953292  0.81769961  0.74995806    -0.30900
H1923       H  0.76842963  0.88458166  0.75517993     0.13300
H1924       H  0.72410774  0.78955033  0.73394787     0.13800
C1925       C  0.76488804  0.83457824  0.93486826    -0.15800
C1926       C  0.73214646  0.84141408  0.92545849    -0.30900
H1927       H  0.77440684  0.81611774  0.91644411     0.13300
H1928       H  0.72550320  0.86296613  0.94249486     0.13800
C1929       C  0.84077129  0.51392171  0.91188622    -0.15800
C1930       C  0.88114909  0.52354281  0.91858577    -0.30900
H1931       H  0.81350665  0.48979679  0.92837168     0.13300
H1932       H  0.90829057  0.54661744  0.90129346     0.13800
C1933       C  0.87375179  0.51681432  0.72721426    -0.15800
C1934       C  0.84171728  0.52570524  0.73658446    -0.30900
H1935       H  0.89514700  0.51865816  0.74873439     0.13300
H1936       H  0.81765459  0.51947946  0.71607901     0.13800
C1937       C  0.58785567  0.65500353  0.75330787    -0.15800
C1938       C  0.54899699  0.63029483  0.73882919    -0.30900
H1939       H  0.61680276  0.65567928  0.74123841     0.12700
H1940       H  0.51969667  0.62814752  0.75167835     0.13800
C1941       C  0.55623967  0.64860085  0.92493005    -0.15800
C1942       C  0.56811447  0.62028108  0.93551924    -0.30900
H1943       H  0.53126460  0.65117712  0.94144993     0.13300
H1944       H  0.59009500  0.61416729  0.91794905     0.13800
C1945       C  0.69848360  0.55997730  0.74938991    -0.15800
C1946       C  0.66968163  0.51956260  0.73989623    -0.30900
H1947       H  0.70266023  0.58685494  0.73314740     0.13300
H1948       H  0.66469354  0.49306365  0.75716535     0.13800
C1949       C  0.65393604  0.51617228  0.93495068    -0.15800
C1950       C  0.68986013  0.55387729  0.92668938    -0.30900
H1951       H  0.64023203  0.49085803  0.91423499     0.13300
H1952       H  0.70071992  0.57950090  0.94724714     0.13800
C1953       C  0.53773845  0.80326760  0.91667141    -0.15800
C1954       C  0.55162040  0.84330641  0.92721848    -0.30900
H1955       H  0.51135242  0.77680500  0.93199623     0.13300
H1956       H  0.57694695  0.86955047  0.91087794     0.13800
C1957       C  0.55457408  0.84746937  0.73718346    -0.15800
C1958       C  0.55422078  0.81019475  0.74332142    -0.30900
H1959       H  0.56348929  0.87098135  0.75944695     0.13300
H1960       H  0.54127757  0.78551845  0.72195262     0.13800
C1961       C  0.87843373  0.70644020  0.92611113    -0.15800
C1962       C  0.86992326  0.73828056  0.93622848    -0.30900
H1963       H  0.89708600  0.69874816  0.94442645     0.13300
H1964       H  0.85425089  0.74843438  0.91685832     0.13800
C1965       C  0.85634663  0.72480938  0.73737267    -0.15800
C1966       C  0.87901211  0.70757243  0.75017530    -0.30900
H1967       H  0.82666830  0.71882170  0.75244779     0.13300
H1968       H  0.90891321  0.71303500  0.73588542     0.13800
loop_ 
_geom_bond_atom_site_label_1 
_geom_bond_atom_site_label_2 
_geom_bond_distance 
_geom_bond_site_symmetry_2 
_ccdc_geom_bond_type 
C1            C2   1.527       .  S
C1            C7   1.526       .  S
C1            C5   1.513       .  S
C1          C161   1.502       .  S
C2            H9   1.086       .  S
C2          C331   1.364       .  D
C3            C4   1.570       .  S
C3          C166   1.369       .  D
C3          C179   1.498       .  S
C4            C8   1.573       .  S
C4            C6   1.563       .  S
C4           H10   1.110       .  S
C5           H11   1.077       .  S
C5          C334   1.366       .  D
C6          C169   1.366       .  D
C6           C63   1.527       .  S
C7          H340   1.086       .  S
C7          C336   1.368   1_554  D
C8          C171   1.367       .  D
C8          C158   1.506       .  S
H12         C171   1.086       .  S
C13          C19   1.546       .  S
C13          C17   1.509       .  S
C13         C150   1.482       .  S
C13         C998   1.521   1_455  S
C14         C997   1.525       .  S
C14          H21   1.087       .  S
C14         C179   1.363       .  D
C15        C1000   1.565   1_556  S
C15         C342   1.361       .  D
C15         C331   1.487   1_556  S
C16          C20   1.556       .  S
C16          C18   1.563   1_554  S
C16         C999   1.572   1_454  S
C16          H22   1.110       .  S
C17          H23   1.086       .  S
C17         C182   1.350       .  D
C18         C345   1.353       .  D
C18         C358   1.480   1_556  S
C19         H188   1.086       .  S
C19         C184   1.365       .  D
C20         C347   1.366   1_554  D
C20         C153   1.513       .  S
H24         C347   1.086       .  S
C25          C26   1.511       .  S
C25          C31   1.535       .  S
C25         C142   1.498       .  S
C25         C521   1.522   1_545  S
C26          H33   1.081       .  S
C26         C355   1.371       .  D
C27         C520   1.544   1_545  S
C27         C190   1.368       .  D
C27          C42   1.489       .  S
C28          C32   1.556       .  S
C28          C30   1.557       .  S
C28         C519   1.548       .  S
C28          H34   1.110       .  S
C29         C517   1.525       .  S
C29          H35   1.086       .  S
C29         C358   1.361       .  D
C30         C193   1.358       .  D
C30         C182   1.466       .  S
C31         H364   1.087       .  S
C31         C852   1.365   1_554  D
C32         C687   1.366       .  D
C32         C637   1.494       .  S
H36         C195   1.087       .  S
C37          C43   1.513   1_554  S
C37          C41   1.512       .  S
C37         C134   1.486       .  S
C37        C1022   1.530       .  S
C38        C1021   1.507       .  S
C38          H45   1.082       .  S
C38         C367   1.361       .  D
C39        C1024   1.556       .  S
C39         C202   1.362       .  D
C39         C215   1.463       .  S
C40          C44   1.549       .  S
C40          C42   1.550       .  S
C40        C1023   1.555   1_455  S
C40          H46   1.109       .  S
C41          H47   1.082       .  S
C41         C370   1.362       .  D
C42         C205   1.363       .  D
C43         H376   1.087       .  S
C43         C372   1.364       .  D
C44         C207   1.359       .  D
C44         C138   1.483       .  S
H48         C207   1.087       .  S
C49          C50   1.516       .  S
C49          C55   1.551       .  S
C49         C126   1.487       .  S
C49         C545   1.523   1_545  S
C50          H57   1.087       .  S
C50         C215   1.354       .  D
C51         C544   1.546   1_546  S
C51         C378   1.356       .  D
C51         C367   1.460   1_556  S
C52          C54   1.560   1_554  S
C52         C543   1.558   1_554  S
C52         C548   1.550       .  S
C52          H58   1.111       .  S
C53         C541   1.524       .  S
C53          H59   1.087       .  S
C53         C218   1.358       .  D
C54         C381   1.358       .  D
C54         C394   1.472       .  S
C55         H224   1.086       .  S
C55         C220   1.366       .  D
C56         C544   1.552   1_545  S
C56         C383   1.365   1_554  D
C56         C129   1.517       .  S
H60         C383   1.086       .  S
C61          C62   1.516       .  S
C61          C65   1.513       .  S
C61         C117   1.505       .  S
C61         C395   1.525   1_554  S
C62          H69   1.077       .  S
C62         C391   1.372       .  D
C63          C64   1.564       .  S
C63         C226   1.375       .  D
C64          C68   1.571       .  S
C64          C66   1.572       .  S
C64          H70   1.110       .  S
C65          H71   1.085       .  S
C65         C394   1.363   1_554  D
C66         C229   1.358       .  D
C66         C218   1.475       .  S
C67         C225   1.527       .  S
C67          H72   1.086       .  S
C67          C68   1.366       .  D
C68         C121   1.512       .  S
Fe73         O89   2.084       .  S
Fe73         O79   2.016       .  S
Fe73         O86   2.006       .  S
Fe73         O78   2.087       .  S
Fe73         O84   1.970       .  S
Fe74         O77   2.098       .  S
Fe74         O81   2.062       .  S
Fe74         O85   2.062       .  S
Fe74         O90   2.051       .  S
Fe74         O84   1.985       .  S
Fe75         O93   2.095       .  S
Fe75         O80   2.060       .  S
Fe75         O87   2.050       .  S
Fe75         O76   2.109       .  S
Fe75         O84   1.977       .  S
O76          C83   1.273       .  A
O77          C91   1.270       .  A
O78          C83   1.270       .  A
O79          C82   1.258       .  A
O80          C92   1.270       .  A
O81          C94   1.271       .  A
C82          O87   1.271       .  A
C82         C149   1.446       .  S
C83         C154   1.504       .  S
O85          C88   1.264       .  A
O86          C88   1.256       .  A
C88         C133   1.439       .  S
O89          C94   1.274       .  A
O90          C92   1.270       .  A
C91          O93   1.273       .  A
C91         C122   1.502       .  S
C92         C118   1.456       .  S
C94         C137   1.471       .  S
Fe95        O111   2.112       .  S
Fe95        O101   2.058       .  S
Fe95        O108   2.044       .  S
Fe95        O100   2.117       .  S
Fe95        O106   1.986       .  S
Fe96         O99   2.020       .  S
Fe96        O103   2.094       .  S
Fe96        O107   2.036       .  S
Fe96        O112   2.096       .  S
Fe96        O106   1.988       .  S
Fe97        O115   2.064       .  S
Fe97        O102   2.076       .  S
Fe97        O109   2.050       .  S
Fe97         O98   2.069       .  S
Fe97        O106   1.979       .  S
O98         C105   1.267       .  A
O99         C113   1.259       .  A
O100        C105   1.279       .  A
O101        C104   1.265       .  A
O102        C114   1.272       .  A
O103        C116   1.273       .  A
C104        O109   1.271       .  A
C104        C162   1.474       .  S
C105        C157   1.498       .  S
O107        C110   1.261       .  A
O108        C110   1.269       .  A
C110        C125   1.453       .  S
O111        C116   1.276       .  A
O112        C114   1.274       .  A
C113        O115   1.265       .  A
C113        C141   1.459       .  S
C114        C146   1.485       .  S
C116        C130   1.505       .  S
C117        H119   1.087       .  S
C117        C118   1.341       .  D
C118        H120   1.088       .  S
C121        H123   1.085       .  S
C121        C122   1.364       .  D
C122        H124   1.086       .  S
C125        H127   1.087   1_545  S
C125        C126   1.332       .  D
C126        H128   1.088       .  S
C129        H131   1.085       .  S
C129        C130   1.357       .  D
C130        H132   1.086       .  S
C133        H135   1.087       .  S
C133        C134   1.338       .  D
C134        H136   1.088       .  S
C137        H139   1.087       .  S
C137        C138   1.348       .  D
C138        H140   1.086       .  S
C141        H143   1.087       .  S
C141        C142   1.345       .  D
C142        H144   1.087   1_545  S
C145        H147   1.085   1_545  S
C145        C146   1.352       .  D
C145        C524   1.496       .  S
C146        H148   1.087       .  S
C149        H151   1.088       .  S
C149        C150   1.326       .  D
C150        H152   1.088       .  S
C153        H155   1.085       .  S
C153        C154   1.358       .  D
C154        H156   1.086       .  S
C157        H159   1.086       .  S
C157        C158   1.364       .  D
C158        H160   1.086       .  S
C161        H163   1.086       .  S
C161        C162   1.338       .  D
C162        H164   1.086       .  S
C165        C166   1.530       .  S
C165        C171   1.526       .  S
C165        C169   1.516       .  S
C165        C325   1.510       .  S
C166        H173   1.085       .  S
C167        C168   1.567       .  S
C167        C330   1.364       .  D
C167        C343   1.488       .  S
C168        C172   1.570       .  S
C168        C170   1.566       .  S
C168        H174   1.110       .  S
C169        H175   1.079       .  S
C170        C333   1.367       .  D
C170        C227   1.526       .  S
C172        C335   1.365       .  D
C172        C322   1.503       .  S
H176        C335   1.086       .  S
C177       C1162   1.519   1_455  S
C177        C183   1.544       .  S
C177        C181   1.509       .  S
C177        C314   1.480       .  S
C178       C1161   1.524       .  S
C178        H185   1.086       .  S
C178        C343   1.362       .  D
C179       C1164   1.574       .  S
C180       C1163   1.566   1_455  S
C180        C184   1.556       .  S
C180        C182   1.558       .  S
C180        H186   1.110       .  S
C181        H187   1.088       .  S
C181        C346   1.351       .  D
C183        H352   1.087       .  S
C183        C348   1.362       .  D
C184        C317   1.510       .  S
C189        C190   1.509       .  S
C189        C195   1.525       .  S
C189        C685   1.526   1_545  S
C189        C306   1.493       .  S
C190        H197   1.079       .  S
C191        C684   1.544   1_545  S
C191        C354   1.370       .  D
C191        C206   1.491       .  S
C192        C683   1.549       .  S
C192        C196   1.561       .  S
C192        C194   1.557       .  S
C192        H198   1.110       .  S
C193        C681   1.524       .  S
C193        H199   1.086       .  S
C194        C357   1.361       .  D
C194        C346   1.472       .  S
C195        C524   1.363       .  D
C196        C851   1.363       .  D
C196        C801   1.499       .  S
H200        C359   1.087       .  S
C201       C1186   1.507   1_455  S
C201        C207   1.521       .  S
C201        C205   1.507       .  S
C201        C298   1.478       .  S
C202       C1185   1.510       .  S
C202        H209   1.081       .  S
C203       C1188   1.550       .  S
C203        C366   1.364       .  D
C203        C379   1.475       .  S
C204       C1187   1.540   1_455  S
C204        C208   1.558       .  S
C204        C206   1.537       .  S
C204        H210   1.109       .  S
C205        H211   1.080       .  S
C206        C369   1.358       .  D
C208        C371   1.368       .  D
C208        C302   1.490       .  S
H212        C371   1.085       .  S
C213        C214   1.510       .  S
C213        C219   1.548       .  S
C213        C709   1.518   1_545  S
C213        C290   1.485       .  S
C214        H221   1.083       .  S
C214        C379   1.357       .  D
C215        C708   1.552   1_545  S
C216        C707   1.552       .  S
C216        C712   1.549       .  S
C216        C218   1.565       .  S
C216        H222   1.111       .  S
C217        C705   1.524       .  S
C217        H223   1.087       .  S
C217        C382   1.360       .  D
C219        H388   1.086       .  S
C219        C384   1.365       .  D
C220        C708   1.548   1_545  S
C220        C293   1.513       .  S
C225        C226   1.519       .  S
C225        C229   1.506       .  S
C225        C281   1.506       .  S
C226        H233   1.079       .  S
C227        C228   1.564       .  S
C227        C390   1.378       .  D
C228        C232   1.567       .  S
C228        C230   1.571       .  S
C228        H234   1.110       .  S
C229        H235   1.086       .  S
C230        C393   1.357       .  D
C230        C382   1.469       .  S
C231        C389   1.522       .  S
C231        H236   1.086       .  S
C231        C232   1.361       .  D
C232        C285   1.502       .  S
Fe237       O253   2.111       .  S
Fe237       O243   2.008       .  S
Fe237       O250   1.992       .  S
Fe237       O242   2.108       .  S
Fe237       O248   1.960       .  S
Fe238       O241   2.083       .  S
Fe238       O245   2.078       .  S
Fe238       O249   2.068       .  S
Fe238       O254   2.032       .  S
Fe238       O248   1.960       .  S
Fe239       O257   2.086       .  S
Fe239       O244   2.078       .  S
Fe239       O251   2.080       .  S
Fe239       O240   2.087       .  S
Fe239       O248   1.951       .  S
O240        C247   1.267       .  A
O241        C255   1.270       .  A
O242        C247   1.273       .  A
O243        C246   1.265       .  A
O244        C256   1.273       .  A
O245        C258   1.267       .  A
C246        O251   1.283       .  A
C246        C313   1.446       .  S
C247        C318   1.506       .  S
O249        C252   1.271       .  A
O250        C252   1.261       .  A
C252        C297   1.429       .  S
O253        C258   1.274       .  A
O254        C256   1.265       .  A
C255        O257   1.274       .  A
C255        C286   1.489       .  S
C256        C282   1.457       .  S
C258        C301   1.486       .  S
Fe259       O275   2.111       .  S
Fe259       O265   2.066       .  S
Fe259       O272   2.048       .  S
Fe259       O264   2.118       .  S
Fe259       O270   1.984       .  S
Fe260       O263   2.011       .  S
Fe260       O267   2.088       .  S
Fe260       O271   2.024       .  S
Fe260       O276   2.094       .  S
Fe260       O270   1.990       .  S
Fe261       O279   2.062       .  S
Fe261       O266   2.085       .  S
Fe261       O273   2.056       .  S
Fe261       O262   2.063       .  S
Fe261       O270   1.976       .  S
O262        C269   1.267       .  A
O263        C277   1.257       .  A
O264        C269   1.280       .  A
O265        C268   1.265       .  A
O266        C278   1.273       .  A
O267        C280   1.273       .  A
C268        O273   1.271       .  A
C268        C326   1.481       .  S
C269        C321   1.496       .  S
O271        C274   1.257       .  A
O272        C274   1.269       .  A
C274        C289   1.451       .  S
O275        C280   1.277       .  A
O276        C278   1.274       .  A
C277        O279   1.265       .  A
C277        C305   1.455       .  S
C278        C310   1.492       .  S
C280        C294   1.501       .  S
C281        H283   1.087       .  S
C281        C282   1.335       .  D
C282        H284   1.088       .  S
C285        H287   1.085       .  S
C285        C286   1.360       .  D
C286        H288   1.086       .  S
C289        H291   1.088   1_545  S
C289        C290   1.328       .  D
C290        H292   1.088       .  S
C293        H295   1.085       .  S
C293        C294   1.354       .  D
C294        H296   1.086       .  S
C297        H299   1.088       .  S
C297        C298   1.337       .  D
C298        H300   1.088       .  S
C301        H303   1.088       .  S
C301        C302   1.355       .  D
C302        H304   1.087       .  S
C305        H307   1.087       .  S
C305        C306   1.345       .  D
C306        H308   1.087   1_545  S
C309        H311   1.085   1_545  S
C309        C310   1.352       .  D
C309        C688   1.497       .  S
C310        H312   1.087       .  S
C313        H315   1.088       .  S
C313        C314   1.327       .  D
C314        H316   1.088       .  S
C317        H319   1.085       .  S
C317        C318   1.358       .  D
C318        H320   1.087       .  S
C321        H323   1.086       .  S
C321        C322   1.363       .  D
C322        H324   1.086       .  S
C325        H327   1.087       .  S
C325        C326   1.340       .  D
C326        H328   1.086       .  S
C329        C330   1.527       .  S
C329        C335   1.525       .  S
C329        C333   1.517       .  S
C329        C489   1.502       .  S
C330        H337   1.087       .  S
C331        C332   1.565   1_554  S
C332        C336   1.570       .  S
C332        C334   1.561   1_556  S
C332        H338   1.110       .  S
C333        H339   1.080       .  S
C334        C391   1.523       .  S
C336        C486   1.500       .  S
C341       C1326   1.518   1_455  S
C341        C347   1.544       .  S
C341        C345   1.520       .  S
C341        C478   1.487       .  S
C342       C1325   1.523       .  S
C342        H349   1.086       .  S
C343       C1328   1.568       .  S
C344       C1327   1.567   1_455  S
C344        C348   1.549       .  S
C344        C346   1.565       .  S
C344        H350   1.110       .  S
C345        H351   1.087       .  S
C348        C481   1.504       .  S
C353        C354   1.517       .  S
C353        C359   1.536       .  S
C353        C849   1.524   1_545  S
C353        C470   1.497       .  S
C354        H361   1.081       .  S
C355        C848   1.547   1_544  S
C355        C370   1.499       .  S
C356        C847   1.557   1_556  S
C356        C360   1.561       .  S
C356        C358   1.563   1_556  S
C356        H362   1.110       .  S
C357        C845   1.525       .  S
C357        H363   1.086       .  S
C359        C688   1.363       .  D
C360        C523   1.366   1_556  D
C360        C965   1.500       .  S
C365       C1350   1.531       .  S
C365        C371   1.544       .  S
C365        C369   1.527       .  S
C365        C462   1.509       .  S
C366       C1349   1.530       .  S
C366        H373   1.084       .  S
C367       C1352   1.557   1_554  S
C368       C1351   1.550   1_456  S
C368        C372   1.568       .  S
C368        C370   1.552   1_556  S
C368        H374   1.110       .  S
C369        H375   1.076       .  S
C372        C466   1.494       .  S
C377        C378   1.517       .  S
C377        C383   1.550       .  S
C377        C873   1.525   1_545  S
C377        C454   1.487       .  S
C378        H385   1.086       .  S
C379        C872   1.552   1_545  S
C380        C871   1.545       .  S
C380        C876   1.552       .  S
C380        C382   1.559       .  S
C380        H386   1.111       .  S
C381        C869   1.522       .  S
C381        H387   1.087       .  S
C384        C872   1.548   1_545  S
C384        C457   1.509       .  S
C389        C390   1.521       .  S
C389        C393   1.494       .  S
C389        C445   1.494       .  S
C390        H397   1.080       .  S
C391        C392   1.560   1_554  S
C392        C396   1.563       .  S
C392        C394   1.565       .  S
C392        H398   1.110       .  S
C393        H399   1.083       .  S
C395        H400   1.086       .  S
C395        C396   1.365       .  D
C396        C449   1.499       .  S
Fe401       O417   2.111       .  S
Fe401       O407   2.055       .  S
Fe401       O414   2.036       .  S
Fe401       O406   2.090       .  S
Fe401       O412   1.985       .  S
Fe402       O405   2.064       .  S
Fe402       O409   2.034       .  S
Fe402       O413   2.054       .  S
Fe402       O418   2.002       .  S
Fe402       O412   1.980       .  S
Fe403       O421   2.103       .  S
Fe403       O408   2.055       .  S
Fe403       O415   2.039       .  S
Fe403       O404   2.091       .  S
Fe403       O412   1.975       .  S
O404        C411   1.269       .  A
O405        C419   1.267       .  A
O406        C411   1.271       .  A
O407        C410   1.268       .  A
O408        C420   1.265       .  A
O409        C422   1.260       .  A
C410        O415   1.272       .  A
C410        C477   1.460       .  S
C411        C482   1.497       .  S
O413        C416   1.266       .  A
O414        C416   1.264       .  A
C416        C461   1.464       .  S
O417        C422   1.275       .  A
O418        C420   1.255       .  A
C419        O421   1.276       .  A
C419        C450   1.490       .  S
C420        C446   1.433       .  S
C422        C465   1.477       .  S
Fe423       O439   2.107       .  S
Fe423       O429   2.066       .  S
Fe423       O436   2.048       .  S
Fe423       O428   2.113       .  S
Fe423       O434   1.986       .  S
Fe424       O427   2.026       .  S
Fe424       O431   2.090       .  S
Fe424       O435   2.031       .  S
Fe424       O440   2.096       .  S
Fe424       O434   1.987       .  S
Fe425       O443   2.059       .  S
Fe425       O430   2.068       .  S
Fe425       O437   2.044       .  S
Fe425       O426   2.061       .  S
Fe425       O434   1.976       .  S
O426        C433   1.265       .  A
O427        C441   1.260       .  A
O428        C433   1.278       .  A
O429        C432   1.267       .  A
O430        C442   1.270       .  A
O431        C444   1.273       .  A
C432        O437   1.269       .  A
C432        C490   1.474       .  S
C433        C485   1.495       .  S
O435        C438   1.260       .  A
O436        C438   1.268       .  A
C438        C453   1.452       .  S
O439        C444   1.276       .  A
O440        C442   1.274       .  A
C441        O443   1.264       .  A
C441        C469   1.458       .  S
C442        C474   1.484       .  S
C444        C458   1.500       .  S
C445        H447   1.088       .  S
C445        C446   1.324       .  D
C446        H448   1.089       .  S
C449        H451   1.086       .  S
C449        C450   1.359       .  D
C450        H452   1.087       .  S
C453        H455   1.088   1_545  S
C453        C454   1.332       .  D
C454        H456   1.088       .  S
C457        H459   1.085       .  S
C457        C458   1.354       .  D
C458        H460   1.086       .  S
C461        H463   1.086       .  S
C461        C462   1.345       .  D
C462        H464   1.087       .  S
C465        H467   1.089       .  S
C465        C466   1.346       .  D
C466        H468   1.085       .  S
C469        H471   1.087       .  S
C469        C470   1.342       .  D
C470        H472   1.087   1_545  S
C473        H475   1.085   1_545  S
C473        C474   1.347       .  D
C473        C852   1.491       .  S
C474        H476   1.087       .  S
C477        H479   1.087       .  S
C477        C478   1.337       .  D
C478        H480   1.088       .  S
C481        H483   1.085       .  S
C481        C482   1.355       .  D
C482        H484   1.087       .  S
C485        H487   1.086       .  S
C485        C486   1.361       .  D
C486        H488   1.086       .  S
C489        H491   1.087       .  S
C489        C490   1.340       .  D
C490        H492   1.087       .  S
C493        C494   1.528       .  S
C493        C499   1.523   1_554  S
C493        C497   1.514       .  S
C493        C653   1.498       .  S
C494        H501   1.087       .  S
C494        C823   1.363       .  D
C495        C496   1.567       .  S
C495        C658   1.362       .  D
C495        C671   1.485       .  S
C496        C500   1.576       .  S
C496        C498   1.562       .  S
C496        H502   1.110       .  S
C497        H503   1.081       .  S
C497        C826   1.365       .  D
C498        C661   1.363       .  D
C498        C555   1.519       .  S
C499        H832   1.086       .  S
C499        C828   1.366       .  D
C500        C663   1.367       .  D
C500        C650   1.507       .  S
H504        C663   1.086       .  S
C505       C1490   1.521   1_455  S
C505        C511   1.545       .  S
C505        C509   1.507       .  S
C505        C642   1.481       .  S
C506       C1489   1.519       .  S
C506        H513   1.086       .  S
C506        C671   1.358       .  D
C507       C1492   1.573   1_556  S
C507        C834   1.359       .  D
C507        C823   1.487   1_556  S
C508       C1491   1.569   1_454  S
C508        C512   1.554       .  S
C508        C510   1.565   1_554  S
C508        H514   1.110       .  S
C509        H515   1.087       .  S
C509        C674   1.349       .  D
C510        C837   1.350       .  D
C510        C850   1.475   1_556  S
C511        H680   1.086       .  S
C511        C676   1.367       .  D
C512        C839   1.367   1_554  D
C512        C645   1.514       .  S
H516        C839   1.086       .  S
C517        C518   1.508       .  S
C517        C523   1.526       .  S
C517        C634   1.502       .  S
C518        H525   1.079       .  S
C518        C847   1.369       .  D
C519        C682   1.370       .  D
C519        C534   1.495       .  S
C520        C524   1.557   1_565  S
C520        C522   1.556       .  S
C520        H526   1.110       .  S
C521        H527   1.086       .  S
C521        C850   1.360       .  D
C522        C685   1.362       .  D
C522        C674   1.469       .  S
C523        H856   1.087   1_554  S
H528        C687   1.086       .  S
C529       C1514   1.507   1_455  S
C529        C535   1.523       .  S
C529        C533   1.509       .  S
C529        C626   1.488       .  S
C530       C1513   1.505       .  S
C530        H537   1.081       .  S
C530        C859   1.359       .  D
C531       C1516   1.555       .  S
C531        C694   1.362       .  D
C531        C707   1.469       .  S
C532       C1515   1.557   1_455  S
C532        C536   1.552       .  S
C532        C534   1.553       .  S
C532        H538   1.110       .  S
C533        H539   1.080       .  S
C533        C862   1.369       .  D
C534        C697   1.363       .  D
C535        H868   1.087   1_554  S
C535        C864   1.361   1_554  D
C536        C699   1.361       .  D
C536        C630   1.485       .  S
H540        C699   1.087       .  S
C541        C542   1.519       .  S
C541        C547   1.549       .  S
C541        C618   1.489       .  S
C542        H549   1.087       .  S
C542        C707   1.357       .  D
C543        C870   1.354       .  D
C543        C859   1.467   1_556  S
C544        C546   1.558   1_554  S
C544        H550   1.111       .  S
C545        H551   1.087       .  S
C545        C710   1.359       .  D
C546        C873   1.358       .  D
C546        C886   1.466       .  S
C547        H716   1.086       .  S
C547        C712   1.366       .  D
C548        C875   1.366   1_554  D
C548        C621   1.515       .  S
H552        C875   1.086       .  S
C553        C554   1.520       .  S
C553        C887   1.524   1_554  S
C553        C557   1.499       .  S
C553        C609   1.497       .  S
C554        H561   1.080       .  S
C554        C883   1.376       .  D
C555        C556   1.557       .  S
C555        C718   1.375       .  D
C556        C560   1.561       .  S
C556        C558   1.568       .  S
C556        H562   1.110       .  S
C557        H563   1.086       .  S
C557        C886   1.357   1_554  D
C558        C721   1.361       .  D
C558        C710   1.471       .  S
C559        C717   1.527       .  S
C559        H564   1.086       .  S
C559        C560   1.365       .  D
C560        C613   1.500       .  S
Fe565       O581   2.079       .  S
Fe565       O571   2.025       .  S
Fe565       O578   2.018       .  S
Fe565       O570   2.086       .  S
Fe565       O576   1.977       .  S
Fe566       O569   2.074       .  S
Fe566       O573   2.065       .  S
Fe566       O577   2.040       .  S
Fe566       O582   2.026       .  S
Fe566       O576   1.988       .  S
Fe567       O585   2.095       .  S
Fe567       O572   2.056       .  S
Fe567       O579   2.046       .  S
Fe567       O568   2.107       .  S
Fe567       O576   1.979       .  S
O568        C575   1.272       .  A
O569        C583   1.267       .  A
O570        C575   1.269       .  A
O571        C574   1.261       .  A
O572        C584   1.269       .  A
O573        C586   1.269       .  A
C574        O579   1.273       .  A
C574        C641   1.447       .  S
C575        C646   1.503       .  S
O577        C580   1.262       .  A
O578        C580   1.260       .  A
C580        C625   1.442       .  S
O581        C586   1.271       .  A
O582        C584   1.262       .  A
C583        O585   1.273       .  A
C583        C614   1.490       .  S
C584        C610   1.445       .  S
C586        C629   1.476       .  S
Fe587       O603   2.111       .  S
Fe587       O593   2.060       .  S
Fe587       O600   2.045       .  S
Fe587       O592   2.116       .  S
Fe587       O598   1.985       .  S
Fe588       O591   2.023       .  S
Fe588       O595   2.093       .  S
Fe588       O599   2.038       .  S
Fe588       O604   2.099       .  S
Fe588       O598   1.988       .  S
Fe589       O607   2.067       .  S
Fe589       O594   2.067       .  S
Fe589       O601   2.037       .  S
Fe589       O590   2.074       .  S
Fe589       O598   1.978       .  S
O590        C597   1.268       .  A
O591        C605   1.259       .  A
O592        C597   1.280       .  A
O593        C596   1.264       .  A
O594        C606   1.269       .  A
O595        C608   1.274       .  A
C596        O601   1.268       .  A
C596        C654   1.472       .  S
C597        C649   1.499       .  S
O599        C602   1.261       .  A
O600        C602   1.268       .  A
C602        C617   1.455       .  S
O603        C608   1.276       .  A
O604        C606   1.275       .  A
C605        O607   1.267       .  A
C605        C633   1.462       .  S
C606        C638   1.484       .  S
C608        C622   1.504       .  S
C609        H611   1.087       .  S
C609        C610   1.330       .  D
C610        H612   1.088       .  S
C613        H615   1.086       .  S
C613        C614   1.357       .  D
C614        H616   1.086       .  S
C617        H619   1.088       .  S
C617        C618   1.334       .  D
C618        H620   1.088       .  S
C621        H623   1.085       .  S
C621        C622   1.356       .  D
C622        H624   1.086       .  S
C625        H627   1.087       .  S
C625        C626   1.336       .  D
C626        H628   1.087       .  S
C629        H631   1.088       .  S
C629        C630   1.350       .  D
C630        H632   1.086       .  S
C633        H635   1.087       .  S
C633        C634   1.347       .  D
C634        H636   1.087       .  S
C637        H639   1.085       .  S
C637        C638   1.349       .  D
C638        H640   1.088       .  S
C641        H643   1.088       .  S
C641        C642   1.325       .  D
C642        H644   1.088       .  S
C645        H647   1.085       .  S
C645        C646   1.359       .  D
C646        H648   1.086       .  S
C649        H651   1.086       .  S
C649        C650   1.364       .  D
C650        H652   1.086       .  S
C653        H655   1.087       .  S
C653        C654   1.338       .  D
C654        H656   1.086       .  S
C657        C658   1.527       .  S
C657        C663   1.524       .  S
C657        C661   1.513       .  S
C657        C817   1.495       .  S
C658        H665   1.087       .  S
C659        C660   1.576       .  S
C659        C822   1.364       .  D
C659        C835   1.496       .  S
C660        C664   1.578       .  S
C660        C662   1.567       .  S
C660        H666   1.110       .  S
C661        H667   1.081       .  S
C662        C825   1.363       .  D
C662        C719   1.527       .  S
C664        C827   1.366       .  D
C664        C814   1.511       .  S
H668        C827   1.086       .  S
C669       C1654   1.517   1_455  S
C669        C675   1.546       .  S
C669        C673   1.505       .  S
C669        C806   1.477       .  S
C670       C1653   1.523       .  S
C670        H677   1.087       .  S
C670        C835   1.359       .  D
C671       C1656   1.570       .  S
C672       C1655   1.573   1_455  S
C672        C676   1.553       .  S
C672        C674   1.561       .  S
C672        H678   1.110       .  S
C673        H679   1.087       .  S
C673        C838   1.349       .  D
C675        H844   1.086       .  S
C675        C840   1.365       .  D
C676        C809   1.512       .  S
C681        C682   1.508       .  S
C681        C687   1.526       .  S
C681        C798   1.494       .  S
C682        H689   1.079       .  S
C683        C846   1.372       .  D
C683        C698   1.498       .  S
C684        C688   1.550   1_565  S
C684        C686   1.558       .  S
C684        H690   1.109       .  S
C685        H691   1.086       .  S
C686        C849   1.360       .  D
C686        C838   1.470       .  S
H692        C851   1.087       .  S
C693       C1678   1.503   1_455  S
C693        C699   1.523       .  S
C693        C697   1.508       .  S
C693        C790   1.480       .  S
C694       C1677   1.515       .  S
C694        H701   1.081       .  S
C695       C1680   1.552       .  S
C695        C858   1.360       .  D
C695        C871   1.454       .  S
C696       C1679   1.564   1_455  S
C696        C700   1.552       .  S
C696        C698   1.555       .  S
C696        H702   1.109       .  S
C697        H703   1.080       .  S
C698        C861   1.367       .  D
C700        C863   1.362       .  D
C700        C794   1.487       .  S
H704        C863   1.087       .  S
C705        C706   1.519       .  S
C705        C711   1.551       .  S
C705        C782   1.483       .  S
C706        H713   1.088       .  S
C706        C871   1.354       .  D
C708        C710   1.561       .  S
C708        H714   1.111       .  S
C709        H715   1.087       .  S
C709        C874   1.359       .  D
C711        H880   1.086       .  S
C711        C876   1.363       .  D
C712        C785   1.514       .  S
C717        C718   1.520       .  S
C717        C721   1.507       .  S
C717        C773   1.505       .  S
C718        H725   1.081       .  S
C719        C720   1.560       .  S
C719        C882   1.379       .  D
C720        C724   1.570       .  S
C720        C722   1.568       .  S
C720        H726   1.110       .  S
C721        H727   1.085       .  S
C722        C885   1.359       .  D
C722        C874   1.469       .  S
C723        C881   1.524       .  S
C723        H728   1.086       .  S
C723        C724   1.362       .  D
C724        C777   1.508       .  S
Fe729       O745   2.066       .  S
Fe729       O735   2.017       .  S
Fe729       O742   2.004       .  S
Fe729       O734   2.077       .  S
Fe729       O740   1.981       .  S
Fe730       O733   2.076       .  S
Fe730       O737   2.082       .  S
Fe730       O741   2.035       .  S
Fe730       O746   2.039       .  S
Fe730       O740   1.989       .  S
Fe731       O749   2.108       .  S
Fe731       O736   2.061       .  S
Fe731       O743   2.048       .  S
Fe731       O732   2.113       .  S
Fe731       O740   1.978       .  S
O732        C739   1.273       .  A
O733        C747   1.269       .  A
O734        C739   1.267       .  A
O735        C738   1.259       .  A
O736        C748   1.269       .  A
O737        C750   1.271       .  A
C738        O743   1.273       .  A
C738        C805   1.443       .  S
C739        C810   1.501       .  S
O741        C744   1.261       .  A
O742        C744   1.258       .  A
C744        C789   1.435       .  S
O745        C750   1.268       .  A
O746        C748   1.264       .  A
C747        O749   1.277       .  A
C747        C778   1.497       .  S
C748        C774   1.454       .  S
C750        C793   1.477       .  S
Fe751       O767   2.109       .  S
Fe751       O757   2.054       .  S
Fe751       O764   2.038       .  S
Fe751       O756   2.120       .  S
Fe751       O762   1.985       .  S
Fe752       O755   2.014       .  S
Fe752       O759   2.089       .  S
Fe752       O763   2.037       .  S
Fe752       O768   2.099       .  S
Fe752       O762   1.988       .  S
Fe753       O771   2.065       .  S
Fe753       O758   2.074       .  S
Fe753       O765   2.038       .  S
Fe753       O754   2.075       .  S
Fe753       O762   1.978       .  S
O754        C761   1.269       .  A
O755        C769   1.259       .  A
O756        C761   1.281       .  A
O757        C760   1.262       .  A
O758        C770   1.271       .  A
O759        C772   1.272       .  A
C760        O765   1.268       .  A
C760        C818   1.470       .  S
C761        C813   1.502       .  S
O763        C766   1.261       .  A
O764        C766   1.268       .  A
C766        C781   1.452       .  S
O767        C772   1.276       .  A
O768        C770   1.274       .  A
C769        O771   1.266       .  A
C769        C797   1.458       .  S
C770        C802   1.487       .  S
C772        C786   1.501       .  S
C773        H775   1.087       .  S
C773        C774   1.335       .  D
C774        H776   1.088       .  S
C777        H779   1.085       .  S
C777        C778   1.364       .  D
C778        H780   1.086       .  S
C781        H783   1.087       .  S
C781        C782   1.334       .  D
C782        H784   1.088       .  S
C785        H787   1.085       .  S
C785        C786   1.355       .  D
C786        H788   1.086       .  S
C789        H791   1.088       .  S
C789        C790   1.336       .  D
C790        H792   1.088       .  S
C793        H795   1.088       .  S
C793        C794   1.348       .  D
C794        H796   1.086       .  S
C797        H799   1.087       .  S
C797        C798   1.343       .  D
C798        H800   1.088       .  S
C801        H803   1.085       .  S
C801        C802   1.354       .  D
C802        H804   1.087       .  S
C805        H807   1.088       .  S
C805        C806   1.324       .  D
C806        H808   1.088       .  S
C809        H811   1.085       .  S
C809        C810   1.357       .  D
C810        H812   1.086       .  S
C813        H815   1.086       .  S
C813        C814   1.367       .  D
C814        H816   1.085       .  S
C817        H819   1.087       .  S
C817        C818   1.337       .  D
C818        H820   1.087       .  S
C821        C822   1.527       .  S
C821        C827   1.525       .  S
C821        C825   1.514       .  S
C821        C981   1.499       .  S
C822        H829   1.086       .  S
C823        C824   1.569   1_554  S
C824        C828   1.578       .  S
C824        C826   1.564   1_556  S
C824        H830   1.110       .  S
C825        H831   1.080       .  S
C826        C883   1.524       .  S
C828        C978   1.509       .  S
C833       C1818   1.522   1_455  S
C833        C839   1.545       .  S
C833        C837   1.509       .  S
C833        C970   1.487       .  S
C834       C1817   1.517       .  S
C834        H841   1.086       .  S
C835       C1820   1.577       .  S
C836       C1819   1.574   1_455  S
C836        C840   1.553       .  S
C836        C838   1.566       .  S
C836        H842   1.110   1_455  S
C837        H843   1.086       .  S
C840        C973   1.513       .  S
C845        C846   1.513       .  S
C845        C851   1.523       .  S
C845        C962   1.498       .  S
C846        H853   1.079       .  S
C847        C862   1.506       .  S
C848        C852   1.546   1_565  S
C848        C850   1.566   1_556  S
C848        H854   1.110       .  S
C849        H855   1.086       .  S
C857       C1842   1.506   1_455  S
C857        C863   1.523       .  S
C857        C861   1.511       .  S
C857        C954   1.486       .  S
C858       C1841   1.505       .  S
C858        H865   1.081       .  S
C859       C1844   1.564   1_554  S
C860       C1843   1.560   1_456  S
C860        C864   1.560       .  S
C860        C862   1.556   1_556  S
C860        H866   1.110       .  S
C861        H867   1.079       .  S
C864        C958   1.494       .  S
C869        C870   1.518       .  S
C869        C875   1.551       .  S
C869        C946   1.487       .  S
C870        H877   1.088       .  S
C872        C874   1.567       .  S
C872        H878   1.111       .  S
C873        H879   1.087       .  S
C876        C949   1.517       .  S
C881        C882   1.521       .  S
C881        C885   1.507       .  S
C881        C937   1.504       .  S
C882        H889   1.080       .  S
C883        C884   1.561   1_554  S
C884        C888   1.563       .  S
C884        C886   1.569       .  S
C884        H890   1.110       .  S
C885        H891   1.086       .  S
C887        H892   1.087       .  S
C887        C888   1.364       .  D
C888        C941   1.498       .  S
Fe893       O909   2.087       .  S
Fe893       O899   2.027       .  S
Fe893       O906   2.019       .  S
Fe893       O898   2.088       .  S
Fe893       O904   1.978       .  S
Fe894       O897   2.070       .  S
Fe894       O901   2.074       .  S
Fe894       O905   2.038       .  S
Fe894       O910   2.031       .  S
Fe894       O904   1.988       .  S
Fe895       O913   2.094       .  S
Fe895       O900   2.070       .  S
Fe895       O907   2.059       .  S
Fe895       O896   2.106       .  S
Fe895       O904   1.983       .  S
O896        C903   1.272       .  A
O897        C911   1.268       .  A
O898        C903   1.270       .  A
O899        C902   1.262       .  A
O900        C912   1.271       .  A
O901        C914   1.270       .  A
C902        O907   1.274       .  A
C902        C969   1.452       .  S
C903        C974   1.502       .  S
O905        C908   1.262       .  A
O906        C908   1.261       .  A
C908        C953   1.441       .  S
O909        C914   1.272       .  A
O910        C912   1.263       .  A
C911        O913   1.274       .  A
C911        C942   1.488       .  S
C912        C938   1.453       .  S
C914        C957   1.484       .  S
Fe915       O931   2.115       .  S
Fe915       O921   2.056       .  S
Fe915       O928   2.041       .  S
Fe915       O920   2.120       .  S
Fe915       O926   1.986       .  S
Fe916       O919   2.025       .  S
Fe916       O923   2.094       .  S
Fe916       O927   2.037       .  S
Fe916       O932   2.100       .  S
Fe916       O926   1.989       .  S
Fe917       O935   2.064       .  S
Fe917       O922   2.077       .  S
Fe917       O929   2.047       .  S
Fe917       O918   2.069       .  S
Fe917       O926   1.976       .  S
O918        C925   1.267       .  A
O919        C933   1.259       .  A
O920        C925   1.281       .  A
O921        C924   1.263       .  A
O922        C934   1.272       .  A
O923        C936   1.275       .  A
C924        O929   1.270       .  A
C924        C982   1.472       .  S
C925        C977   1.500       .  S
O927        C930   1.260       .  A
O928        C930   1.267       .  A
C930        C945   1.453       .  S
O931        C936   1.277       .  A
O932        C934   1.275       .  A
C933        O935   1.265       .  A
C933        C961   1.460       .  S
C934        C966   1.489       .  S
C936        C950   1.506       .  S
C937        H939   1.087       .  S
C937        C938   1.334       .  D
C938        H940   1.088       .  S
C941        H943   1.085       .  S
C941        C942   1.358       .  D
C942        H944   1.087       .  S
C945        H947   1.087       .  S
C945        C946   1.333       .  D
C946        H948   1.088       .  S
C949        H951   1.085       .  S
C949        C950   1.357       .  D
C950        H952   1.086       .  S
C953        H955   1.088       .  S
C953        C954   1.335       .  D
C954        H956   1.088       .  S
C957        H959   1.087       .  S
C957        C958   1.355       .  D
C958        H960   1.085       .  S
C961        H963   1.087       .  S
C961        C962   1.344       .  D
C962        H964   1.087       .  S
C965        H967   1.085       .  S
C965        C966   1.353       .  D
C966        H968   1.087       .  S
C969        H971   1.088       .  S
C969        C970   1.327       .  D
C970        H972   1.088       .  S
C973        H975   1.085       .  S
C973        C974   1.359       .  D
C974        H976   1.086       .  S
C977        H979   1.086       .  S
C977        C978   1.366       .  D
C978        H980   1.085       .  S
C981        H983   1.087       .  S
C981        C982   1.336       .  D
C982        H984   1.087       .  S
C985        C986   1.528       .  S
C985        C991   1.524   1_554  S
C985        C989   1.513       .  S
C985       C1145   1.503       .  S
C986        H993   1.087       .  S
C986       C1315   1.363       .  D
C987        C988   1.568       .  S
C987       C1150   1.362       .  D
C987       C1163   1.482       .  S
C988        C992   1.571       .  S
C988        C990   1.560       .  S
C988        H994   1.110       .  S
C989        H995   1.082       .  S
C989       C1318   1.366       .  D
C990       C1153   1.364       .  D
C990       C1047   1.517       .  S
C991       H1324   1.086       .  S
C991       C1320   1.369       .  D
C992       C1155   1.366       .  D
C992       C1142   1.501       .  S
H996       C1155   1.086       .  S
C997       C1003   1.540       .  S
C997       C1001   1.498       .  S
C997       C1134   1.484       .  S
C998       H1005   1.086       .  S
C998       C1163   1.359       .  D
C999       C1326   1.360       .  D
C999       C1315   1.490   1_556  S
C1000      C1004   1.554       .  S
C1000      C1002   1.566   1_554  S
C1000      H1006   1.110       .  S
C1001      H1007   1.084       .  S
C1001      C1166   1.349       .  D
C1002      C1329   1.349       .  D
C1002      C1342   1.468   1_556  S
C1003      H1172   1.086       .  S
C1003      C1168   1.367       .  D
C1004      C1331   1.366   1_554  D
C1004      C1137   1.513       .  S
H1008      C1331   1.086       .  S
C1009      C1010   1.511       .  S
C1009      C1015   1.525       .  S
C1009      C1505   1.528   1_545  S
C1009      C1126   1.495       .  S
C1010      H1017   1.078       .  S
C1010      C1339   1.367       .  D
C1011      C1504   1.549   1_545  S
C1011      C1174   1.372       .  D
C1011      C1026   1.498       .  S
C1012      C1503   1.527       .  S
C1012      C1016   1.561       .  S
C1012      C1014   1.544       .  S
C1012      H1018   1.110       .  S
C1013      C1501   1.526       .  S
C1013      H1019   1.087       .  S
C1013      C1342   1.360       .  D
C1014      C1177   1.365       .  D
C1014      C1166   1.485       .  S
C1015      H1348   1.087       .  S
C1015      C1836   1.365   1_554  D
C1016      C1671   1.372       .  D
C1016      C1621   1.498       .  S
H1020      C1179   1.087       .  S
C1021      C1027   1.524       .  S
C1021      C1025   1.509       .  S
C1021      C1118   1.483       .  S
C1022      H1029   1.086   1_455  S
C1022      C1351   1.363   1_455  D
C1023      C1186   1.362       .  D
C1023      C1199   1.456       .  S
C1024      C1028   1.557       .  S
C1024      C1026   1.555       .  S
C1024      H1030   1.109       .  S
C1025      H1031   1.079       .  S
C1025      C1354   1.365       .  D
C1026      C1189   1.366       .  D
C1027      H1360   1.087       .  S
C1027      C1356   1.359   1_554  D
C1028      C1191   1.358       .  D
C1028      C1122   1.487       .  S
H1032      C1191   1.087       .  S
C1033      C1034   1.516       .  S
C1033      C1039   1.550       .  S
C1033      C1529   1.524   1_545  S
C1033      C1110   1.480       .  S
C1034      H1041   1.088       .  S
C1034      C1199   1.353       .  D
C1035      C1528   1.555   1_546  S
C1035      C1362   1.354       .  D
C1035      C1351   1.470   1_556  S
C1036      C1527   1.554   1_554  S
C1036      C1532   1.555       .  S
C1036      C1038   1.564   1_554  S
C1036      H1042   1.111       .  S
C1037      C1525   1.525       .  S
C1037      H1043   1.087       .  S
C1037      C1202   1.359       .  D
C1038      C1365   1.359       .  D
C1038      C1378   1.473       .  S
C1039      H1208   1.086       .  S
C1039      C1204   1.362       .  D
C1040      C1528   1.549   1_545  S
C1040      C1367   1.362   1_554  D
C1040      C1113   1.504       .  S
H1044      C1367   1.086       .  S
C1045      C1046   1.518       .  S
C1045      C1379   1.529   1_554  S
C1045      C1049   1.499       .  S
C1045      C1101   1.501       .  S
C1046      H1053   1.082       .  S
C1046      C1375   1.374       .  D
C1047      C1048   1.560       .  S
C1047      C1210   1.372       .  D
C1048      C1052   1.561       .  S
C1048      C1050   1.567       .  S
C1048      H1054   1.110       .  S
C1049      H1055   1.085       .  S
C1049      C1378   1.356   1_554  D
C1050      C1213   1.359       .  D
C1050      C1202   1.466       .  S
C1051      C1209   1.528       .  S
C1051      H1056   1.086       .  S
C1051      C1052   1.366       .  D
C1052      C1105   1.501       .  S
Fe1057     O1073   2.102       .  S
Fe1057     O1063   2.008       .  S
Fe1057     O1070   2.010       .  S
Fe1057     O1062   2.120       .  S
Fe1057     O1068   1.975       .  S
Fe1058     O1061   2.088       .  S
Fe1058     O1065   2.051       .  S
Fe1058     O1069   2.046       .  S
Fe1058     O1074   2.019       .  S
Fe1058     O1068   1.975       .  S
Fe1059     O1077   2.081       .  S
Fe1059     O1064   2.072       .  S
Fe1059     O1071   2.072       .  S
Fe1059     O1060   2.072       .  S
Fe1059     O1068   1.959       .  S
O1060      C1067   1.266       .  A
O1061      C1075   1.269       .  A
O1062      C1067   1.274       .  A
O1063      C1066   1.259       .  A
O1064      C1076   1.271       .  A
O1065      C1078   1.269       .  A
C1066      O1071   1.278       .  A
C1066      C1133   1.448       .  S
C1067      C1138   1.499       .  S
O1069      C1072   1.264       .  A
O1070      C1072   1.260       .  A
C1072      C1117   1.431       .  S
O1073      C1078   1.276       .  A
O1074      C1076   1.261       .  A
C1075      O1077   1.271       .  A
C1075      C1106   1.489       .  S
C1076      C1102   1.452       .  S
C1078      C1121   1.478       .  S
Fe1079     O1095   2.094       .  S
Fe1079     O1085   2.062       .  S
Fe1079     O1092   2.041       .  S
Fe1079     O1084   2.104       .  S
Fe1079     O1090   1.984       .  S
Fe1080     O1083   2.012       .  S
Fe1080     O1087   2.091       .  S
Fe1080     O1091   2.025       .  S
Fe1080     O1096   2.100       .  S
Fe1080     O1090   1.988       .  S
Fe1081     O1099   2.063       .  S
Fe1081     O1086   2.072       .  S
Fe1081     O1093   2.044       .  S
Fe1081     O1082   2.073       .  S
Fe1081     O1090   1.977       .  S
O1082      C1089   1.268       .  A
O1083      C1097   1.257       .  A
O1084      C1089   1.276       .  A
O1085      C1088   1.265       .  A
O1086      C1098   1.270       .  A
O1087      C1100   1.273       .  A
C1088      O1093   1.269       .  A
C1088      C1146   1.475       .  S
C1089      C1141   1.493       .  S
O1091      C1094   1.259       .  A
O1092      C1094   1.269       .  A
C1094      C1109   1.446       .  S
O1095      C1100   1.272       .  A
O1096      C1098   1.274       .  A
C1097      O1099   1.266       .  A
C1097      C1125   1.455       .  S
C1098      C1130   1.486       .  S
C1100      C1114   1.496       .  S
C1101      H1103   1.087       .  S
C1101      C1102   1.333       .  D
C1102      H1104   1.088       .  S
C1105      H1107   1.086       .  S
C1105      C1106   1.358       .  D
C1106      H1108   1.087       .  S
C1109      H1111   1.088   1_545  S
C1109      C1110   1.330       .  D
C1110      H1112   1.088       .  S
C1113      H1115   1.085       .  S
C1113      C1114   1.355       .  D
C1114      H1116   1.087       .  S
C1117      H1119   1.088       .  S
C1117      C1118   1.333       .  D
C1118      H1120   1.088       .  S
C1121      H1123   1.087       .  S
C1121      C1122   1.353       .  D
C1122      H1124   1.086       .  S
C1125      H1127   1.087       .  S
C1125      C1126   1.345       .  D
C1126      H1128   1.087   1_545  S
C1129      H1131   1.085   1_545  S
C1129      C1130   1.351       .  D
C1129      C1508   1.496       .  S
C1130      H1132   1.087       .  S
C1133      H1135   1.088       .  S
C1133      C1134   1.324       .  D
C1134      H1136   1.088       .  S
C1137      H1139   1.086       .  S
C1137      C1138   1.358       .  D
C1138      H1140   1.086       .  S
C1141      H1143   1.087       .  S
C1141      C1142   1.360       .  D
C1142      H1144   1.085       .  S
C1145      H1147   1.087       .  S
C1145      C1146   1.339       .  D
C1146      H1148   1.087       .  S
C1149      C1150   1.524       .  S
C1149      C1155   1.522       .  S
C1149      C1153   1.512       .  S
C1149      C1309   1.492       .  S
C1150      H1157   1.087       .  S
C1151      C1152   1.562       .  S
C1151      C1314   1.369       .  D
C1151      C1327   1.487       .  S
C1152      C1156   1.574       .  S
C1152      C1154   1.563       .  S
C1152      H1158   1.110       .  S
C1153      H1159   1.082       .  S
C1154      C1317   1.364       .  D
C1154      C1211   1.523       .  S
C1156      C1319   1.365       .  D
C1156      C1306   1.500       .  S
H1160      C1319   1.086       .  S
C1161      C1167   1.546       .  S
C1161      C1165   1.504       .  S
C1161      C1298   1.484       .  S
C1162      H1169   1.086       .  S
C1162      C1327   1.361       .  D
C1164      C1168   1.549       .  S
C1164      C1166   1.573       .  S
C1164      H1170   1.110       .  S
C1165      H1171   1.086       .  S
C1165      C1330   1.347       .  D
C1167      H1336   1.086       .  S
C1167      C1332   1.367       .  D
C1168      C1301   1.501       .  S
C1173      C1174   1.513       .  S
C1173      C1179   1.528       .  S
C1173      C1669   1.521   1_545  S
C1173      C1290   1.494       .  S
C1174      H1181   1.078       .  S
C1175      C1668   1.554       .  S
C1175      C1338   1.363       .  D
C1175      C1190   1.497       .  S
C1176      C1667   1.543       .  S
C1176      C1180   1.556       .  S
C1176      C1178   1.557       .  S
C1176      H1182   1.110       .  S
C1177      C1665   1.546       .  S
C1177      H1183   1.087       .  S
C1178      C1341   1.360       .  D
C1178      C1330   1.466       .  S
C1179      C1508   1.364       .  D
C1180      C1835   1.367       .  D
C1180      C1785   1.497       .  S
H1184      C1343   1.086       .  S
C1185      C1191   1.518       .  S
C1185      C1189   1.512       .  S
C1185      C1282   1.483       .  S
C1186      H1193   1.082       .  S
C1187      C1350   1.359   1_655  D
C1187      C1363   1.469       .  S
C1188      C1192   1.564       .  S
C1188      C1190   1.541       .  S
C1188      H1194   1.110       .  S
C1189      H1195   1.078       .  S
C1190      C1353   1.362       .  D
C1192      C1355   1.367       .  D
C1192      C1286   1.478       .  S
H1196      C1355   1.087       .  S
C1197      C1198   1.513       .  S
C1197      C1203   1.550       .  S
C1197      C1693   1.521   1_545  S
C1197      C1274   1.485       .  S
C1198      H1205   1.088       .  S
C1198      C1363   1.350       .  D
C1199      C1692   1.548   1_545  S
C1200      C1691   1.548       .  S
C1200      C1696   1.549       .  S
C1200      C1202   1.556       .  S
C1200      H1206   1.111       .  S
C1201      C1689   1.527       .  S
C1201      H1207   1.087       .  S
C1201      C1366   1.361       .  D
C1203      H1372   1.086       .  S
C1203      C1368   1.366       .  D
C1204      C1692   1.549   1_545  S
C1204      C1277   1.512       .  S
C1209      C1210   1.516       .  S
C1209      C1213   1.501       .  S
C1209      C1265   1.500       .  S
C1210      H1217   1.082       .  S
C1211      C1212   1.562       .  S
C1211      C1374   1.376       .  D
C1212      C1216   1.558       .  S
C1212      C1214   1.572       .  S
C1212      H1218   1.110       .  S
C1213      H1219   1.085       .  S
C1214      C1377   1.363       .  D
C1214      C1366   1.478       .  S
C1215      C1373   1.524       .  S
C1215      H1220   1.086       .  S
C1215      C1216   1.363       .  D
C1216      C1269   1.497       .  S
Fe1221     O1237   2.087       .  S
Fe1221     O1227   2.002       .  S
Fe1221     O1234   2.007       .  S
Fe1221     O1226   2.103       .  S
Fe1221     O1232   1.972       .  S
Fe1222     O1225   2.091       .  S
Fe1222     O1229   2.048       .  S
Fe1222     O1233   2.055       .  S
Fe1222     O1238   2.015       .  S
Fe1222     O1232   1.965       .  S
Fe1223     O1241   2.066       .  S
Fe1223     O1228   2.075       .  S
Fe1223     O1235   2.082       .  S
Fe1223     O1224   2.060       .  S
Fe1223     O1232   1.951       .  S
O1224      C1231   1.262       .  A
O1225      C1239   1.270       .  A
O1226      C1231   1.269       .  A
O1227      C1230   1.259       .  A
O1228      C1240   1.273       .  A
O1229      C1242   1.269       .  A
C1230      O1235   1.281       .  A
C1230      C1297   1.449       .  S
C1231      C1302   1.487       .  S
O1233      C1236   1.267       .  A
O1234      C1236   1.260       .  A
C1236      C1281   1.431       .  S
O1237      C1242   1.272       .  A
O1238      C1240   1.261       .  A
C1239      O1241   1.267       .  A
C1239      C1270   1.483       .  S
C1240      C1266   1.450       .  S
C1242      C1285   1.469       .  S
Fe1243     O1259   2.112       .  S
Fe1243     O1249   2.054       .  S
Fe1243     O1256   2.032       .  S
Fe1243     O1248   2.121       .  S
Fe1243     O1254   1.980       .  S
Fe1244     O1247   2.030       .  S
Fe1244     O1251   2.091       .  S
Fe1244     O1255   2.043       .  S
Fe1244     O1260   2.093       .  S
Fe1244     O1254   1.987       .  S
Fe1245     O1263   2.047       .  S
Fe1245     O1250   2.063       .  S
Fe1245     O1257   2.033       .  S
Fe1245     O1246   2.049       .  S
Fe1245     O1254   1.973       .  S
O1246      C1253   1.264       .  A
O1247      C1261   1.261       .  A
O1248      C1253   1.280       .  A
O1249      C1252   1.263       .  A
O1250      C1262   1.269       .  A
O1251      C1264   1.274       .  A
C1252      O1257   1.268       .  A
C1252      C1310   1.468       .  S
C1253      C1305   1.493       .  S
O1255      C1258   1.261       .  A
O1256      C1258   1.266       .  A
C1258      C1273   1.456       .  S
O1259      C1264   1.277       .  A
O1260      C1262   1.274       .  A
C1261      O1263   1.261       .  A
C1261      C1289   1.456       .  S
C1262      C1294   1.478       .  S
C1264      C1278   1.502       .  S
C1265      H1267   1.087       .  S
C1265      C1266   1.333       .  D
C1266      H1268   1.089       .  S
C1269      H1271   1.086       .  S
C1269      C1270   1.355       .  D
C1270      H1272   1.087       .  S
C1273      H1275   1.087   1_545  S
C1273      C1274   1.332       .  D
C1274      H1276   1.088       .  S
C1277      H1279   1.085       .  S
C1277      C1278   1.356       .  D
C1278      H1280   1.086       .  S
C1281      H1283   1.087       .  S
C1281      C1282   1.333       .  D
C1282      H1284   1.088       .  S
C1285      H1287   1.087       .  S
C1285      C1286   1.345       .  D
C1286      H1288   1.086       .  S
C1289      H1291   1.087       .  S
C1289      C1290   1.340       .  D
C1290      H1292   1.087   1_545  S
C1293      H1295   1.085   1_545  S
C1293      C1294   1.346       .  D
C1293      C1672   1.494       .  S
C1294      H1296   1.087       .  S
C1297      H1299   1.088       .  S
C1297      C1298   1.321       .  D
C1298      H1300   1.088       .  S
C1301      H1303   1.085       .  S
C1301      C1302   1.350       .  D
C1302      H1304   1.086       .  S
C1305      H1307   1.086       .  S
C1305      C1306   1.364       .  D
C1306      H1308   1.086       .  S
C1309      H1311   1.087       .  S
C1309      C1310   1.337       .  D
C1310      H1312   1.087       .  S
C1313      C1314   1.534       .  S
C1313      C1319   1.521       .  S
C1313      C1317   1.513       .  S
C1313      C1473   1.504       .  S
C1314      H1321   1.086       .  S
C1315      C1316   1.571   1_554  S
C1316      C1320   1.576       .  S
C1316      C1318   1.565   1_556  S
C1316      H1322   1.110       .  S
C1317      H1323   1.081       .  S
C1318      C1375   1.525       .  S
C1320      C1470   1.511       .  S
C1325      C1331   1.544       .  S
C1325      C1329   1.502       .  S
C1325      C1462   1.481       .  S
C1326      H1333   1.086       .  S
C1328      C1332   1.553       .  S
C1328      C1330   1.559       .  S
C1328      H1334   1.110       .  S
C1329      H1335   1.087       .  S
C1332      C1465   1.510       .  S
C1337      C1338   1.494       .  S
C1337      C1343   1.535       .  S
C1337      C1833   1.532   1_545  S
C1337      C1454   1.496       .  S
C1338      H1345   1.079       .  S
C1339      C1832   1.545   1_544  S
C1339      C1354   1.494       .  S
C1340      C1831   1.545   1_556  S
C1340      C1344   1.559       .  S
C1340      C1342   1.559   1_556  S
C1340      H1346   1.110       .  S
C1341      C1829   1.526       .  S
C1341      H1347   1.087       .  S
C1343      C1672   1.367       .  D
C1344      C1507   1.362   1_556  D
C1344      C1949   1.493       .  S
C1349      C1355   1.513       .  S
C1349      C1353   1.510       .  S
C1349      C1446   1.490       .  S
C1350      H1357   1.086   1_455  S
C1352      C1356   1.548       .  S
C1352      C1354   1.552   1_556  S
C1352      H1358   1.109       .  S
C1353      H1359   1.081       .  S
C1356      C1450   1.482       .  S
C1361      C1362   1.503       .  S
C1361      C1367   1.545       .  S
C1361      C1857   1.519   1_545  S
C1361      C1438   1.479       .  S
C1362      H1369   1.081       .  S
C1363      C1856   1.554   1_545  S
C1364      C1855   1.555       .  S
C1364      C1860   1.551       .  S
C1364      C1366   1.559       .  S
C1364      H1370   1.111       .  S
C1365      C1853   1.526       .  S
C1365      H1371   1.087       .  S
C1368      C1856   1.546   1_545  S
C1368      C1441   1.503       .  S
C1373      C1374   1.516       .  S
C1373      C1377   1.512       .  S
C1373      C1429   1.506       .  S
C1374      H1381   1.081       .  S
C1375      C1376   1.564   1_554  S
C1376      C1380   1.568       .  S
C1376      C1378   1.576       .  S
C1376      H1382   1.110       .  S
C1377      H1383   1.086       .  S
C1379      H1384   1.086   1_556  S
C1379      C1380   1.367       .  D
C1380      C1433   1.510       .  S
Fe1385     O1401   2.091       .  S
Fe1385     O1391   2.004       .  S
Fe1385     O1398   1.998       .  S
Fe1385     O1390   2.091       .  S
Fe1385     O1396   1.972       .  S
Fe1386     O1389   2.103       .  S
Fe1386     O1393   2.054       .  S
Fe1386     O1397   2.077       .  S
Fe1386     O1402   2.042       .  S
Fe1386     O1396   1.981       .  S
Fe1387     O1405   2.088       .  S
Fe1387     O1392   2.075       .  S
Fe1387     O1399   2.063       .  S
Fe1387     O1388   2.100       .  S
Fe1387     O1396   1.973       .  S
O1388      C1395   1.272       .  A
O1389      C1403   1.272       .  A
O1390      C1395   1.271       .  A
O1391      C1394   1.256       .  A
O1392      C1404   1.273       .  A
O1393      C1406   1.269       .  A
C1394      O1399   1.274       .  A
C1394      C1461   1.444       .  S
C1395      C1466   1.501       .  S
O1397      C1400   1.269       .  A
O1398      C1400   1.255       .  A
C1400      C1445   1.442       .  S
O1401      C1406   1.274       .  A
O1402      C1404   1.267       .  A
C1403      O1405   1.273       .  A
C1403      C1434   1.499       .  S
C1404      C1430   1.459       .  S
C1406      C1449   1.474       .  S
Fe1407     O1423   2.086       .  S
Fe1407     O1413   2.066       .  S
Fe1407     O1420   2.061       .  S
Fe1407     O1412   2.093       .  S
Fe1407     O1418   1.968       .  S
Fe1408     O1411   1.982       .  S
Fe1408     O1415   2.104       .  S
Fe1408     O1419   1.998       .  S
Fe1408     O1424   2.115       .  S
Fe1408     O1418   1.977       .  S
Fe1409     O1427   2.103       .  S
Fe1409     O1414   2.057       .  S
Fe1409     O1421   2.049       .  S
Fe1409     O1410   2.110       .  S
Fe1409     O1418   1.960       .  S
O1410      C1417   1.275       .  A
O1411      C1425   1.248       .  A
O1412      C1417   1.277       .  A
O1413      C1416   1.266       .  A
O1414      C1426   1.267       .  A
O1415      C1428   1.277       .  A
C1416      O1421   1.271       .  A
C1416      C1474   1.474       .  S
C1417      C1469   1.501       .  S
O1419      C1422   1.253       .  A
O1420      C1422   1.271       .  A
C1422      C1437   1.442       .  S
O1423      C1428   1.272       .  A
O1424      C1426   1.276       .  A
C1425      O1427   1.279       .  A
C1425      C1453   1.455       .  S
C1426      C1458   1.485       .  S
C1428      C1442   1.501       .  S
C1429      H1431   1.087       .  S
C1429      C1430   1.341       .  D
C1430      H1432   1.088       .  S
C1433      H1435   1.085       .  S
C1433      C1434   1.361       .  D
C1434      H1436   1.086       .  S
C1437      H1439   1.089   1_545  S
C1437      C1438   1.324       .  D
C1438      H1440   1.088       .  S
C1441      H1443   1.085       .  S
C1441      C1442   1.353       .  D
C1442      H1444   1.086   1_545  S
C1445      H1447   1.087       .  S
C1445      C1446   1.344       .  D
C1446      H1448   1.088       .  S
C1449      H1451   1.087       .  S
C1449      C1450   1.348       .  D
C1450      H1452   1.086       .  S
C1453      H1455   1.088   1_545  S
C1453      C1454   1.318       .  D
C1454      H1456   1.088       .  S
C1457      H1459   1.085   1_545  S
C1457      C1458   1.351       .  D
C1457      C1836   1.499       .  S
C1458      H1460   1.087       .  S
C1461      H1463   1.089       .  S
C1461      C1462   1.324       .  D
C1462      H1464   1.088       .  S
C1465      H1467   1.086       .  S
C1465      C1466   1.356       .  D
C1466      H1468   1.086       .  S
C1469      H1471   1.086       .  S
C1469      C1470   1.362       .  D
C1470      H1472   1.085       .  S
C1473      H1475   1.087       .  S
C1473      C1474   1.336       .  D
C1474      H1476   1.086       .  S
C1477      C1478   1.529       .  S
C1477      C1483   1.528       .  S
C1477      C1481   1.515       .  S
C1477      C1637   1.507       .  S
C1478      H1485   1.086       .  S
C1478      C1807   1.366       .  D
C1479      C1480   1.572       .  S
C1479      C1642   1.362       .  D
C1479      C1655   1.489       .  S
C1480      C1484   1.575       .  S
C1480      C1482   1.565       .  S
C1480      H1486   1.110       .  S
C1481      H1487   1.079       .  S
C1481      C1810   1.366       .  D
C1482      C1645   1.365       .  D
C1482      C1539   1.523       .  S
C1483      H1816   1.086       .  S
C1483      C1812   1.368   1_554  D
C1484      C1647   1.364       .  D
C1484      C1634   1.505       .  S
H1488      C1647   1.086       .  S
C1489      C1495   1.545       .  S
C1489      C1493   1.508       .  S
C1489      C1626   1.479       .  S
C1490      H1497   1.087       .  S
C1490      C1655   1.359       .  D
C1491      C1818   1.362       .  D
C1491      C1807   1.489   1_556  S
C1492      C1496   1.552       .  S
C1492      C1494   1.561       .  S
C1492      H1498   1.110       .  S
C1493      H1499   1.087       .  S
C1493      C1658   1.349       .  D
C1494      C1821   1.348   1_554  D
C1494      C1834   1.468       .  S
C1495      H1664   1.086       .  S
C1495      C1660   1.367       .  D
C1496      C1823   1.366   1_554  D
C1496      C1629   1.510       .  S
H1500      C1823   1.086       .  S
C1501      C1502   1.513       .  S
C1501      C1507   1.524       .  S
C1501      C1618   1.492       .  S
C1502      H1509   1.080       .  S
C1502      C1831   1.370       .  D
C1503      C1666   1.359       .  D
C1503      C1518   1.477       .  S
C1504      C1508   1.556   1_565  S
C1504      C1506   1.559       .  S
C1504      H1510   1.109       .  S
C1505      H1511   1.086       .  S
C1505      C1834   1.362       .  D
C1506      C1669   1.358       .  D
C1506      C1658   1.468       .  S
C1507      H1840   1.087   1_554  S
H1512      C1671   1.085       .  S
C1513      C1519   1.525       .  S
C1513      C1517   1.509       .  S
C1513      C1610   1.485       .  S
C1514      H1521   1.082       .  S
C1514      C1843   1.360       .  D
C1515      C1678   1.360       .  D
C1515      C1691   1.457       .  S
C1516      C1520   1.538       .  S
C1516      C1518   1.541       .  S
C1516      H1522   1.110       .  S
C1517      H1523   1.079       .  S
C1517      C1846   1.364       .  D
C1518      C1681   1.362       .  D
C1519      H1852   1.087       .  S
C1519      C1848   1.362   1_554  D
C1520      C1683   1.363       .  D
C1520      C1614   1.480       .  S
H1524      C1683   1.087       .  S
C1525      C1526   1.517       .  S
C1525      C1531   1.551       .  S
C1525      C1602   1.483       .  S
C1526      H1533   1.088       .  S
C1526      C1691   1.353       .  D
C1527      C1854   1.354       .  D
C1527      C1843   1.462   1_556  S
C1528      C1530   1.567   1_554  S
C1528      H1534   1.111       .  S
C1529      H1535   1.087       .  S
C1529      C1694   1.359       .  D
C1530      C1857   1.358       .  D
C1530      C1870   1.471   1_556  S
C1531      H1700   1.086       .  S
C1531      C1696   1.364       .  D
C1532      C1859   1.363   1_554  D
C1532      C1605   1.521       .  S
H1536      C1859   1.086       .  S
C1537      C1538   1.520       .  S
C1537      C1871   1.524       .  S
C1537      C1541   1.508       .  S
C1537      C1593   1.499       .  S
C1538      H1545   1.079       .  S
C1538      C1867   1.374       .  D
C1539      C1540   1.561       .  S
C1539      C1702   1.376       .  D
C1540      C1544   1.565       .  S
C1540      C1542   1.567       .  S
C1540      H1546   1.110       .  S
C1541      H1547   1.085       .  S
C1541      C1870   1.360       .  D
C1542      C1705   1.358       .  D
C1542      C1694   1.468       .  S
C1543      C1701   1.524       .  S
C1543      H1548   1.086       .  S
C1543      C1544   1.363       .  D
C1544      C1597   1.501       .  S
Fe1549     O1565   2.063       .  S
Fe1549     O1555   2.022       .  S
Fe1549     O1562   2.016       .  S
Fe1549     O1554   2.072       .  S
Fe1549     O1560   1.980       .  S
Fe1550     O1553   2.065       .  S
Fe1550     O1557   2.071       .  S
Fe1550     O1561   2.032       .  S
Fe1550     O1566   2.036       .  S
Fe1550     O1560   1.985       .  S
Fe1551     O1569   2.102       .  S
Fe1551     O1556   2.054       .  S
Fe1551     O1563   2.040       .  S
Fe1551     O1552   2.112       .  S
Fe1551     O1560   1.977       .  S
O1552      C1559   1.273       .  A
O1553      C1567   1.265       .  A
O1554      C1559   1.267       .  A
O1555      C1558   1.260       .  A
O1556      C1568   1.269       .  A
O1557      C1570   1.271       .  A
C1558      O1563   1.271       .  A
C1558      C1625   1.445       .  S
C1559      C1630   1.497       .  S
O1561      C1564   1.259       .  A
O1562      C1564   1.259       .  A
C1564      C1609   1.439       .  S
O1565      C1570   1.268       .  A
O1566      C1568   1.266       .  A
C1567      O1569   1.274       .  A
C1567      C1598   1.491       .  S
C1568      C1594   1.445       .  S
C1570      C1613   1.470       .  S
Fe1571     O1587   2.128       .  S
Fe1571     O1577   2.048       .  S
Fe1571     O1584   2.039       .  S
Fe1571     O1576   2.131       .  S
Fe1571     O1582   1.961       .  S
Fe1572     O1575   2.040       .  S
Fe1572     O1579   2.092       .  S
Fe1572     O1583   2.035       .  S
Fe1572     O1588   2.090       .  S
Fe1572     O1582   1.963       .  S
Fe1573     O1591   2.052       .  S
Fe1573     O1578   2.113       .  S
Fe1573     O1585   2.072       .  S
Fe1573     O1574   2.065       .  S
Fe1573     O1582   1.964       .  S
O1574      C1581   1.274       .  A
O1575      C1589   1.266       .  A
O1576      C1581   1.286       .  A
O1577      C1580   1.261       .  A
O1578      C1590   1.277       .  A
O1579      C1592   1.275       .  A
C1580      O1585   1.271       .  A
C1580      C1638   1.477       .  S
C1581      C1633   1.494       .  S
O1583      C1586   1.260       .  A
O1584      C1586   1.268       .  A
C1586      C1601   1.448       .  S
O1587      C1592   1.279       .  A
O1588      C1590   1.269       .  A
C1589      O1591   1.266       .  A
C1589      C1617   1.456       .  S
C1590      C1622   1.487       .  S
C1592      C1606   1.509       .  S
C1593      H1595   1.087       .  S
C1593      C1594   1.334       .  D
C1594      H1596   1.088       .  S
C1597      H1599   1.086       .  S
C1597      C1598   1.361       .  D
C1598      H1600   1.087       .  S
C1601      H1603   1.087       .  S
C1601      C1602   1.330       .  D
C1602      H1604   1.088       .  S
C1605      H1607   1.085       .  S
C1605      C1606   1.361       .  D
C1606      H1608   1.086       .  S
C1609      H1611   1.088       .  S
C1609      C1610   1.334       .  D
C1610      H1612   1.088       .  S
C1613      H1615   1.087       .  S
C1613      C1614   1.341       .  D
C1614      H1616   1.086       .  S
C1617      H1619   1.087       .  S
C1617      C1618   1.342       .  D
C1618      H1620   1.087       .  S
C1621      H1623   1.087       .  S
C1621      C1622   1.359       .  D
C1622      H1624   1.088       .  S
C1625      H1627   1.088       .  S
C1625      C1626   1.326       .  D
C1626      H1628   1.088       .  S
C1629      H1631   1.085       .  S
C1629      C1630   1.356       .  D
C1630      H1632   1.086       .  S
C1633      H1635   1.086       .  S
C1633      C1634   1.363       .  D
C1634      H1636   1.086       .  S
C1637      H1639   1.087       .  S
C1637      C1638   1.338       .  D
C1638      H1640   1.086       .  S
C1641      C1642   1.525       .  S
C1641      C1647   1.521       .  S
C1641      C1645   1.513       .  S
C1641      C1801   1.493       .  S
C1642      H1649   1.087       .  S
C1643      C1644   1.567       .  S
C1643      C1806   1.363       .  D
C1643      C1819   1.488       .  S
C1644      C1648   1.580       .  S
C1644      C1646   1.564       .  S
C1644      H1650   1.110       .  S
C1645      H1651   1.080       .  S
C1646      C1809   1.364       .  D
C1646      C1703   1.523       .  S
C1648      C1811   1.367       .  D
C1648      C1798   1.513       .  S
H1652      C1811   1.086       .  S
C1653      C1659   1.541       .  S
C1653      C1657   1.510       .  S
C1653      C1790   1.487       .  S
C1654      H1661   1.087       .  S
C1654      C1819   1.358       .  D
C1656      C1660   1.556       .  S
C1656      C1658   1.562       .  S
C1656      H1662   1.110       .  S
C1657      H1663   1.084       .  S
C1657      C1822   1.353       .  D
C1659      H1828   1.086       .  S
C1659      C1824   1.365       .  D
C1660      C1793   1.514       .  S
C1665      C1666   1.523       .  S
C1665      C1671   1.553       .  S
C1665      C1782   1.515       .  S
C1666      H1673   1.085       .  S
C1667      C1830   1.364       .  D
C1667      C1682   1.487       .  S
C1668      C1672   1.547       .  S
C1668      C1670   1.572   1_545  S
C1668      H1674   1.110   1_545  S
C1669      H1675   1.086       .  S
C1670      C1833   1.366       .  D
C1670      C1822   1.490       .  S
H1676      C1835   1.086       .  S
C1677      C1683   1.533       .  S
C1677      C1681   1.519       .  S
C1677      C1774   1.490       .  S
C1678      H1685   1.081       .  S
C1679      C1842   1.359       .  D
C1679      C1855   1.470       .  S
C1680      C1684   1.549       .  S
C1680      C1682   1.549       .  S
C1680      H1686   1.110       .  S
C1681      H1687   1.085       .  S
C1682      C1845   1.365       .  D
C1684      C1847   1.361       .  D
C1684      C1778   1.480       .  S
H1688      C1847   1.087       .  S
C1689      C1690   1.523       .  S
C1689      C1695   1.550       .  S
C1689      C1766   1.495       .  S
C1690      H1697   1.088       .  S
C1690      C1855   1.355       .  D
C1692      C1694   1.560       .  S
C1692      H1698   1.111       .  S
C1693      H1699   1.087       .  S
C1693      C1858   1.360       .  D
C1695      H1864   1.086       .  S
C1695      C1860   1.368       .  D
C1696      C1769   1.514       .  S
C1701      C1702   1.519       .  S
C1701      C1705   1.500       .  S
C1701      C1757   1.499       .  S
C1702      H1709   1.080       .  S
C1703      C1704   1.557       .  S
C1703      C1866   1.376       .  D
C1704      C1708   1.562       .  S
C1704      C1706   1.571       .  S
C1704      H1710   1.110       .  S
C1705      H1711   1.083       .  S
C1706      C1869   1.362       .  D
C1706      C1858   1.479       .  S
C1707      C1865   1.530       .  S
C1707      H1712   1.086       .  S
C1707      C1708   1.365       .  D
C1708      C1761   1.502       .  S
Fe1713     O1729   2.073       .  S
Fe1713     O1719   2.035       .  S
Fe1713     O1726   2.031       .  S
Fe1713     O1718   2.084       .  S
Fe1713     O1724   1.978       .  S
Fe1714     O1717   2.071       .  S
Fe1714     O1721   2.061       .  S
Fe1714     O1725   2.041       .  S
Fe1714     O1730   2.026       .  S
Fe1714     O1724   1.987       .  S
Fe1715     O1733   2.104       .  S
Fe1715     O1720   2.061       .  S
Fe1715     O1727   2.048       .  S
Fe1715     O1716   2.112       .  S
Fe1715     O1724   1.983       .  S
O1716      C1723   1.273       .  A
O1717      C1731   1.268       .  A
O1718      C1723   1.269       .  A
O1719      C1722   1.264       .  A
O1720      C1732   1.269       .  A
O1721      C1734   1.267       .  A
C1722      O1727   1.272       .  A
C1722      C1789   1.451       .  S
C1723      C1794   1.504       .  S
O1725      C1728   1.263       .  A
O1726      C1728   1.263       .  A
C1728      C1773   1.446       .  S
O1729      C1734   1.269       .  A
O1730      C1732   1.261       .  A
C1731      O1733   1.276       .  A
C1731      C1762   1.494       .  S
C1732      C1758   1.446       .  S
C1734      C1777   1.473       .  S
Fe1735     O1751   2.109       .  S
Fe1735     O1741   2.064       .  S
Fe1735     O1748   2.055       .  S
Fe1735     O1740   2.114       .  S
Fe1735     O1746   1.981       .  S
Fe1736     O1739   2.037       .  S
Fe1736     O1743   2.089       .  S
Fe1736     O1747   2.045       .  S
Fe1736     O1752   2.116       .  S
Fe1736     O1746   1.982       .  S
Fe1737     O1755   2.082       .  S
Fe1737     O1742   2.052       .  S
Fe1737     O1749   2.034       .  S
Fe1737     O1738   2.084       .  S
Fe1737     O1746   1.974       .  S
O1738      C1745   1.268       .  A
O1739      C1753   1.258       .  A
O1740      C1745   1.278       .  A
O1741      C1744   1.267       .  A
O1742      C1754   1.268       .  A
O1743      C1756   1.272       .  A
C1744      O1749   1.270       .  A
C1744      C1802   1.467       .  S
C1745      C1797   1.504       .  S
O1747      C1750   1.263       .  A
O1748      C1750   1.270       .  A
C1750      C1765   1.463       .  S
O1751      C1756   1.276       .  A
O1752      C1754   1.278       .  A
C1753      O1755   1.269       .  A
C1753      C1781   1.462       .  S
C1754      C1786   1.482       .  S
C1756      C1770   1.502       .  S
C1757      H1759   1.087       .  S
C1757      C1758   1.330       .  D
C1758      H1760   1.088       .  S
C1761      H1763   1.086       .  S
C1761      C1762   1.359       .  D
C1762      H1764   1.086       .  S
C1765      H1767   1.087       .  S
C1765      C1766   1.336       .  D
C1766      H1768   1.088       .  S
C1769      H1771   1.085       .  S
C1769      C1770   1.355       .  D
C1770      H1772   1.086       .  S
C1773      H1775   1.088       .  S
C1773      C1774   1.336       .  D
C1774      H1776   1.087       .  S
C1777      H1779   1.088       .  S
C1777      C1778   1.348       .  D
C1778      H1780   1.086       .  S
C1781      H1783   1.086       .  S
C1781      C1782   1.353       .  D
C1782      H1784   1.086       .  S
C1785      H1787   1.085       .  S
C1785      C1786   1.348       .  D
C1786      H1788   1.088       .  S
C1789      H1791   1.088       .  S
C1789      C1790   1.331       .  D
C1790      H1792   1.088       .  S
C1793      H1795   1.085       .  S
C1793      C1794   1.358       .  D
C1794      H1796   1.086       .  S
C1797      H1799   1.086       .  S
C1797      C1798   1.367       .  D
C1798      H1800   1.085       .  S
C1801      H1803   1.087       .  S
C1801      C1802   1.336       .  D
C1802      H1804   1.087       .  S
C1805      C1806   1.529       .  S
C1805      C1811   1.524       .  S
C1805      C1809   1.515       .  S
C1805      C1965   1.500       .  S
C1806      H1813   1.087       .  S
C1807      C1808   1.565   1_554  S
C1808      C1812   1.571       .  S
C1808      C1810   1.562   1_556  S
C1808      H1814   1.110       .  S
C1809      H1815   1.081       .  S
C1810      C1867   1.522       .  S
C1812      C1962   1.505       .  S
C1817      C1823   1.544       .  S
C1817      C1821   1.504       .  S
C1817      C1954   1.477       .  S
C1818      H1825   1.086       .  S
C1820      C1824   1.560       .  S
C1820      C1822   1.572       .  S
C1820      H1826   1.110       .  S
C1821      H1827   1.087       .  S
C1824      C1957   1.515       .  S
C1829      C1830   1.508       .  S
C1829      C1835   1.526       .  S
C1829      C1946   1.492       .  S
C1830      H1837   1.080       .  S
C1831      C1846   1.495       .  S
C1832      C1836   1.559   1_565  S
C1832      C1834   1.554   1_556  S
C1832      H1838   1.109       .  S
C1833      H1839   1.086       .  S
C1841      C1847   1.523       .  S
C1841      C1845   1.507       .  S
C1841      C1938   1.478       .  S
C1842      H1849   1.081       .  S
C1844      C1848   1.557       .  S
C1844      C1846   1.555   1_556  S
C1844      H1850   1.109       .  S
C1845      H1851   1.082       .  S
C1848      C1942   1.495       .  S
C1853      C1854   1.515       .  S
C1853      C1859   1.550       .  S
C1853      C1930   1.483       .  S
C1854      H1861   1.088       .  S
C1856      C1858   1.571       .  S
C1856      H1862   1.111       .  S
C1857      H1863   1.087       .  S
C1860      C1933   1.517       .  S
C1865      C1866   1.521       .  S
C1865      C1869   1.511       .  S
C1865      C1921   1.511       .  S
C1866      H1873   1.080       .  S
C1867      C1868   1.559   1_554  S
C1868      C1872   1.568       .  S
C1868      C1870   1.570   1_556  S
C1868      H1874   1.110       .  S
C1869      H1875   1.083       .  S
C1871      H1876   1.086       .  S
C1871      C1872   1.362   1_554  D
C1872      C1925   1.504       .  S
Fe1877     O1893   2.086       .  S
Fe1877     O1883   2.014       .  S
Fe1877     O1890   2.003       .  S
Fe1877     O1882   2.094       .  S
Fe1877     O1888   1.978       .  S
Fe1878     O1881   2.072       .  S
Fe1878     O1885   2.081       .  S
Fe1878     O1889   2.037       .  S
Fe1878     O1894   2.045       .  S
Fe1878     O1888   1.989       .  S
Fe1879     O1897   2.098       .  S
Fe1879     O1884   2.072       .  S
Fe1879     O1891   2.052       .  S
Fe1879     O1880   2.105       .  S
Fe1879     O1888   1.980       .  S
O1880      C1887   1.271       .  A
O1881      C1895   1.266       .  A
O1882      C1887   1.271       .  A
O1883      C1886   1.259       .  A
O1884      C1896   1.272       .  A
O1885      C1898   1.272       .  A
C1886      O1891   1.275       .  A
C1886      C1953   1.444       .  S
C1887      C1958   1.506       .  S
O1889      C1892   1.261       .  A
O1890      C1892   1.258       .  A
C1892      C1937   1.436       .  S
O1893      C1898   1.273       .  A
O1894      C1896   1.267       .  A
C1895      O1897   1.274       .  A
C1895      C1926   1.493       .  S
C1896      C1922   1.459       .  S
C1898      C1941   1.484       .  S
Fe1899     O1915   2.116       .  S
Fe1899     O1905   2.060       .  S
Fe1899     O1912   2.048       .  S
Fe1899     O1904   2.122       .  S
Fe1899     O1910   1.984       .  S
Fe1900     O1903   2.006       .  S
Fe1900     O1907   2.085       .  S
Fe1900     O1911   2.023       .  S
Fe1900     O1916   2.090       .  S
Fe1900     O1910   1.986       .  S
Fe1901     O1919   2.060       .  S
Fe1901     O1906   2.075       .  S
Fe1901     O1913   2.041       .  S
Fe1901     O1902   2.068       .  S
Fe1901     O1910   1.978       .  S
O1902      C1909   1.268       .  A
O1903      C1917   1.257       .  A
O1904      C1909   1.281       .  A
O1905      C1908   1.264       .  A
O1906      C1918   1.271       .  A
O1907      C1920   1.271       .  A
C1908      O1913   1.268       .  A
C1908      C1966   1.473       .  S
C1909      C1961   1.499       .  S
O1911      C1914   1.258       .  A
O1912      C1914   1.269       .  A
C1914      C1929   1.448       .  S
O1915      C1920   1.277       .  A
O1916      C1918   1.272       .  A
C1917      O1919   1.265       .  A
C1917      C1945   1.453       .  S
C1918      C1950   1.485       .  S
C1920      C1934   1.503       .  S
C1921      H1923   1.087       .  S
C1921      C1922   1.338       .  D
C1922      H1924   1.088       .  S
C1925      H1927   1.085       .  S
C1925      C1926   1.361       .  D
C1926      H1928   1.086       .  S
C1929      H1931   1.088       .  S
C1929      C1930   1.329       .  D
C1930      H1932   1.088       .  S
C1933      H1935   1.085       .  S
C1933      C1934   1.355       .  D
C1934      H1936   1.086       .  S
C1937      H1939   1.088       .  S
C1937      C1938   1.335       .  D
C1938      H1940   1.088       .  S
C1941      H1943   1.087       .  S
C1941      C1942   1.353       .  D
C1942      H1944   1.086       .  S
C1945      H1947   1.087       .  S
C1945      C1946   1.344       .  D
C1946      H1948   1.087       .  S
C1949      H1951   1.085       .  S
C1949      C1950   1.351       .  D
C1950      H1952   1.087       .  S
C1953      H1955   1.088       .  S
C1953      C1954   1.323       .  D
C1954      H1956   1.088       .  S
C1957      H1959   1.085       .  S
C1957      C1958   1.362       .  D
C1958      H1960   1.086       .  S
C1961      H1963   1.086       .  S
C1961      C1962   1.363       .  D
C1962      H1964   1.086       .  S
C1965      H1967   1.087       .  S
C1965      C1966   1.339       .  D
C1966      H1968   1.087       .  S
