geometry optimzed in LAMMPS
_audit_creation_date              2020-11-30 
_audit_creation_method            'lammps2cif' 
_symmetry_space_group_name_H-M    'P1' 
_symmetry_Int_Tables_number       1 
_symmetry_cell_setting            triclinic 
loop_ 
_symmetry_equiv_pos_as_xyz 
  x,y,z 
_cell_length_a                    34.93823504 
_cell_length_b                    37.30496125465184 
_cell_length_c                    34.801120296724285 
_cell_angle_alpha                 90.08592973496033 
_cell_angle_beta                  89.61802020098698 
_cell_angle_gamma                 89.91634286940406 
loop_ 
_atom_site_label 
_atom_site_type_symbol 
_atom_site_fract_x 
_atom_site_fract_y 
_atom_site_fract_z 
_atom_site_charge 
N1          N  0.45604481  0.46342107  0.42498702    -0.06500
N2          N  0.44669242  0.44062684  0.39762930    -0.58600
N3          N  0.43183559  0.54629824  0.44826182    -0.06100
N4          N  0.40486381  0.56900283  0.43753041    -0.60700
N5          N  0.45914687  0.54462677  0.42216255    -0.05700
N6          N  0.45112015  0.56603356  0.39297360    -0.58600
N7          N  0.42933188  0.46442086  0.45161321    -0.05400
N8          N  0.40173714  0.44170137  0.44337541    -0.61100
C9          C  0.41280623  0.42698967  0.40956194     0.95700
C10         C  0.41735603  0.58141545  0.40315920     0.95500
N11         N  0.45585983  0.54751990  0.56731249    -0.06600
N12         N  0.44903819  0.57379022  0.59171962    -0.59200
N13         N  0.42505093  0.46729999  0.54195252    -0.04800
N14         N  0.39619462  0.44561842  0.54961355    -0.60400
N15         N  0.45055522  0.46601117  0.56960314    -0.06700
N16         N  0.43963903  0.44339174  0.59657954    -0.59400
N17         N  0.43169051  0.54904659  0.53851458    -0.04400
N18         N  0.40874294  0.57672937  0.54247328    -0.60500
Mn19       Mn  0.42876207  0.50676938  0.49526564     1.18400
C20         C  0.41963033  0.59210378  0.57580828     0.97800
C21         C  0.40595805  0.43072138  0.58350664     0.98500
N22         N  0.54961620  0.54051449  0.42838674    -0.06700
N23         N  0.55788878  0.56512574  0.40271304    -0.63000
N24         N  0.57215751  0.45802085  0.45585242    -0.05500
N25         N  0.59856031  0.43379833  0.44750439    -0.63700
N26         N  0.54656573  0.45944251  0.42818186    -0.06200
N27         N  0.55515953  0.43636708  0.40065428    -0.63300
N28         N  0.57559004  0.53981835  0.45570532    -0.05100
N29         N  0.60210660  0.56421528  0.44901035    -0.64000
Mn30       Mn  0.50307400  0.50198603  0.42523416     1.10700
C31         C  0.59041256  0.57981972  0.41600137     0.99000
C32         C  0.58747265  0.42042359  0.41312633     0.99100
N33         N  0.54124072  0.46091021  0.57418006    -0.06200
N34         N  0.54739761  0.43802040  0.60249872    -0.61600
N35         N  0.57354270  0.54073485  0.54709586    -0.05500
N36         N  0.60066641  0.56387582  0.55593308    -0.58300
N37         N  0.54535033  0.54278144  0.57219760    -0.06800
N38         N  0.55246115  0.56766051  0.59814380    -0.61100
N39         N  0.56921860  0.45932061  0.54873294    -0.05800
N40         N  0.59510799  0.43563510  0.55958681    -0.58300
Mn41       Mn  0.49808237  0.50415032  0.57176907     1.20200
Mn42       Mn  0.57376660  0.49923516  0.50179165     1.10100
Cl43       Cl  0.50113208  0.50276697  0.49853551    -0.86300
C44         C  0.58103583  0.42218119  0.59295487     0.96000
C45         C  0.58706534  0.58077567  0.58773488     0.95800
N46         N  0.95280366  0.46049424  0.93498620    -0.06500
N47         N  0.94769183  0.43452539  0.90977700    -0.58600
N48         N  0.92040623  0.54226473  0.95737449    -0.06100
N49         N  0.89393876  0.56633343  0.94937179    -0.60700
N50         N  0.94804488  0.54298020  0.93140146    -0.05700
N51         N  0.94082066  0.56773807  0.90524838    -0.58600
N52         N  0.92523396  0.46017649  0.96094489    -0.05400
N53         N  0.90097910  0.43397461  0.95398919    -0.61100
C54         C  0.91553976  0.41801699  0.92224909     0.95700
C55         C  0.90716858  0.58220497  0.91707704     0.95500
N56         N  0.93999779  0.54670613  0.07569693    -0.06600
N57         N  0.92955504  0.57068165  0.10165504    -0.59200
N58         N  0.91918000  0.46285006  0.05086246    -0.04800
N59         N  0.89376479  0.43756364  0.05828996    -0.60400
N60         N  0.94483460  0.46440602  0.07826203    -0.06700
N61         N  0.93746749  0.43997133  0.10478070    -0.59400
N62         N  0.91437652  0.54476162  0.04826139    -0.04400
N63         N  0.88586070  0.56731582  0.05509082    -0.60500
Mn64       Mn  0.91889659  0.50255199  0.00408616     1.18400
C65         C  0.89589309  0.58350913  0.08839857     0.97800
C66         C  0.90556173  0.42322482  0.09191861     0.98500
N67         N  0.03966734  0.54619929  0.93153848    -0.06700
N68         N  0.04946079  0.56693879  0.90226966    -0.63000
N69         N  0.06855985  0.46659235  0.96412192    -0.05500
N70         N  0.09712683  0.44401362  0.95798735    -0.63700
N71         N  0.04342952  0.46454178  0.93620651    -0.06200
N72         N  0.05457917  0.44057491  0.91045477    -0.63300
N73         N  0.06535506  0.54831151  0.95899092    -0.05100
N74         N  0.09316294  0.57051667  0.94874974    -0.64000
Mn75       Mn  0.99571134  0.50358858  0.93255676     1.10700
C76         C  0.08263103  0.58228276  0.91353118     0.99000
C77         C  0.08800652  0.42774763  0.92449847     0.99100
N78         N  0.03543040  0.46978566  0.08077110    -0.06200
N79         N  0.04342727  0.44722588  0.10879004    -0.61600
N80         N  0.05841605  0.55176514  0.05109570    -0.05500
N81         N  0.08352695  0.57690571  0.05936440    -0.58300
N82         N  0.03079375  0.55114744  0.07710410    -0.06800
N83         N  0.03665029  0.57592102  0.10350078    -0.61100
N84         N  0.06343287  0.47045587  0.05523982    -0.05800
N85         N  0.09107619  0.44838034  0.06550468    -0.58300
Mn86       Mn  0.98777753  0.50804024  0.07879561     1.20200
Mn87       Mn  0.06465990  0.50944020  0.00754178     1.10100
Cl88       Cl  0.99184066  0.50615267  0.00570362    -0.86300
C89         C  0.07803231  0.43393155  0.09869346     0.96000
C90         C  0.06939208  0.59190279  0.09182565     0.95800
C91         C  0.75257825  0.25584408  0.75257525    -0.02800
N92         N  0.54564578  0.04450150  0.92459144    -0.06500
N93         N  0.55428788  0.06951070  0.89929138    -0.58600
N94         N  0.56931447  0.96225240  0.95454612    -0.06100
N95         N  0.59391853  0.93557549  0.95061860    -0.60700
N96         N  0.54519506  0.96245090  0.92580732    -0.05700
N97         N  0.55340878  0.93632999  0.90149735    -0.58600
N98         N  0.57052350  0.04459916  0.95260820    -0.05400
N99         N  0.59667758  0.06946565  0.94654106    -0.61100
C100        C  0.58621123  0.08525145  0.91319089     0.95700
C101        C  0.58371984  0.91937506  0.91739286     0.95500
N102        N  0.53574122  0.96504188  0.06983534    -0.06600
N103        N  0.54281655  0.94224742  0.09792403    -0.59200
N104        N  0.56344025  0.04652840  0.04331919    -0.04800
N105        N  0.59002853  0.06952378  0.05392233    -0.60400
N106        N  0.53509807  0.04654122  0.06838570    -0.06700
N107        N  0.54192736  0.06925281  0.09659097    -0.59400
N108        N  0.56395054  0.96479030  0.04462503    -0.04400
N109        N  0.59067777  0.94180881  0.05483677    -0.60500
Mn110      Mn  0.56781268  0.00459179  0.99873163     1.18400
C111        C  0.57697045  0.92776004  0.08786035     0.97800
C112        C  0.57609140  0.08365600  0.08704572     0.98500
N113        N  0.45494672  0.96319354  0.92028937    -0.06700
N114        N  0.44939566  0.93778849  0.89445325    -0.63000
N115        N  0.42774129  0.04619636  0.94485412    -0.05500
N116        N  0.40377191  0.07245649  0.93666191    -0.63700
N117        N  0.45615585  0.04549785  0.91984373    -0.06200
N118        N  0.45212295  0.07117575  0.89414041    -0.63300
N119        N  0.42655027  0.96385850  0.94529299    -0.05100
N120        N  0.40106091  0.93904118  0.93694456    -0.64000
Mn121      Mn  0.50050610  0.00383019  0.92139579     1.10700
C122        C  0.41578164  0.92285616  0.90537821     0.99000
C123        C  0.41952915  0.08790383  0.90518660     0.99100
N124        N  0.44518812  0.04683017  0.06300639    -0.06200
N125        N  0.43508823  0.07011680  0.08974822    -0.61600
N126        N  0.41988589  0.96458365  0.03647650    -0.05500
N127        N  0.39248335  0.94125430  0.04442785    -0.58300
N128        N  0.44528825  0.96502746  0.06422576    -0.06800
N129        N  0.43589832  0.94206726  0.09143495    -0.61100
N130        N  0.41963151  0.04615533  0.03549326    -0.05800
N131        N  0.39129956  0.06855331  0.04339506    -0.58300
Mn132      Mn  0.49026424  0.00582570  0.06702595     1.20200
Mn133      Mn  0.42233701  0.00514732  0.99020843     1.10100
Cl134      Cl  0.49519381  0.00472498  0.99432790    -0.86300
C135        C  0.40142935  0.08355900  0.07728328     0.96000
C136        C  0.40318245  0.92723130  0.07862633     0.95800
C137        C  0.25086418  0.74941903  0.74702250    -0.02800
N138        N  0.95562674  0.04264716  0.57825473    -0.06500
N139        N  0.94703214  0.06614829  0.60532193    -0.58600
N140        N  0.93152419  0.96123836  0.54875447    -0.06100
N141        N  0.90518261  0.93658226  0.55467347    -0.60700
N142        N  0.95734081  0.96056357  0.57601272    -0.05700
N143        N  0.94892821  0.93535281  0.60137800    -0.58600
N144        N  0.92991822  0.04315213  0.55089665    -0.05400
N145        N  0.90300662  0.06695100  0.55885818    -0.61100
C146        C  0.91431210  0.08122682  0.59269520     0.95700
C147        C  0.91661174  0.92039786  0.58726196     0.95500
N148        N  0.96069960  0.96064440  0.43373651    -0.06600
N149        N  0.95270505  0.93626373  0.40737000    -0.59200
N150        N  0.93306542  0.04361683  0.45995735    -0.04800
N151        N  0.90627679  0.06723220  0.45179000    -0.60400
N152        N  0.95919309  0.04270470  0.43264605    -0.06700
N153        N  0.95048920  0.06549120  0.40510227    -0.59400
N154        N  0.93300544  0.96198113  0.45945102    -0.04400
N155        N  0.90572721  0.93893676  0.45090587    -0.60500
Mn156      Mn  0.93111994  0.00279735  0.50474313     1.18400
C157        C  0.91829985  0.92273215  0.41844032     0.97800
C158        C  0.91754245  0.08073091  0.41758154     0.98500
N159        N  0.04765382  0.96339663  0.57733690    -0.06700
N160        N  0.05390979  0.93734393  0.60211726    -0.63000
N161        N  0.07175049  0.04785971  0.55255756    -0.05500
N162        N  0.09503730  0.07476361  0.56057786    -0.63700
N163        N  0.04455173  0.04570926  0.57881076    -0.06200
N164        N  0.04858965  0.07105482  0.60494718    -0.63300
N165        N  0.07543439  0.96506360  0.55173702    -0.05100
N166        N  0.10123988  0.94002342  0.55850181    -0.64000
Mn167      Mn  0.00148002  0.00285408  0.57864134     1.10700
C168        C  0.08721708  0.92288523  0.58978407     0.99000
C169        C  0.08002476  0.08908244  0.59321699     0.99100
N170        N  0.04929645  0.04551609  0.43324305    -0.06200
N171        N  0.05679248  0.06897400  0.40582306    -0.61600
N172        N  0.07864410  0.96511240  0.46159950    -0.05500
N173        N  0.10621693  0.94166558  0.45464445    -0.58300
N174        N  0.05257610  0.96364263  0.43457524    -0.06800
N175        N  0.06218684  0.93953379  0.40841815    -0.61100
N176        N  0.07550945  0.04711259  0.46016429    -0.05800
N177        N  0.10163594  0.07141913  0.45116072    -0.58300
Mn178      Mn  0.00546433  0.00285815  0.43253900     1.20200
Mn179      Mn  0.07661072  0.00659995  0.50672341     1.10100
Cl180      Cl  0.00378881  0.00385126  0.50556280    -0.86300
C181        C  0.08946264  0.08508987  0.41725871     0.96000
C182        C  0.09553966  0.92579166  0.42143583     0.95800
C183        C  0.74095040  0.76174526  0.25458863    -0.02800
C184        C  0.24682496  0.25778478  0.24798976    -0.02800
C185        C  0.74837788  0.24333658  0.25291060    -0.02800
C186        C  0.24719977  0.75356949  0.24616801    -0.02800
C187        C  0.24817598  0.25869482  0.75185498    -0.02800
C188        C  0.74857210  0.75306624  0.75030759    -0.02800
C189        C  0.21959582  0.23311313  0.72814522     0.01000
C190        C  0.17800096  0.23495416  0.73017409     0.03800
C191        C  0.15504182  0.21700396  0.70298536    -0.12200
C192        C  0.17056043  0.19039956  0.67938944     0.23100
C193        C  0.20984754  0.18352717  0.68039939    -0.12800
C194        C  0.23438759  0.20478196  0.70332157     0.04500
C195        C  0.14473900  0.16591999  0.65784201     0.26900
C196        C  0.13321378  0.13349775  0.67509658    -0.13500
C197        C  0.11104132  0.10873035  0.65445004     0.05000
C198        C  0.09936652  0.11671950  0.61666015    -0.09500
C199        C  0.10739913  0.15072778  0.60107916     0.05900
C200        C  0.13119180  0.17483762  0.62097194    -0.13800
Br201      Br  0.22984908  0.14587699  0.64723450    -0.05900
Br202      Br  0.14768480  0.25142590  0.77362078    -0.00300
Br203      Br  0.09732811  0.06377211  0.67819691     0.00200
Br204      Br  0.14514309  0.21988825  0.59778504    -0.04200
Br205      Br  0.28790295  0.19519214  0.69445032     0.00300
Br206      Br  0.10077125  0.22721925  0.69884171    -0.03500
Br207      Br  0.14805457  0.12314355  0.72726189    -0.04400
Br208      Br  0.08189641  0.16571927  0.55495649    -0.00400
C209        C  0.22086615  0.23125730  0.27341432     0.01000
C210        C  0.23850928  0.20110995  0.29300146     0.03800
C211        C  0.21672995  0.17718509  0.31573049    -0.12200
C212        C  0.17822473  0.18421173  0.32366166     0.23100
C213        C  0.16006680  0.21295363  0.30575532    -0.12800
C214        C  0.17939443  0.23350991  0.27767005     0.04500
C215        C  0.15552709  0.15910438  0.34791896     0.26900
C216        C  0.13738293  0.12965206  0.33061802    -0.13500
C217        C  0.11569049  0.10558411  0.35301600     0.05000
C218        C  0.11169411  0.11098246  0.39322011    -0.09500
C219        C  0.12965097  0.14099508  0.41025336     0.05900
C220        C  0.15145789  0.16489481  0.38770160    -0.13800
Br221      Br  0.10693246  0.22244176  0.31884974    -0.05900
Br222      Br  0.29313345  0.19320998  0.29603392    -0.00300
Br223      Br  0.09361462  0.06442044  0.32788849     0.00200
Br224      Br  0.17523245  0.20608062  0.41111004    -0.04200
Br225      Br  0.14340483  0.25544917  0.24230255     0.00300
Br226      Br  0.23977377  0.13486231  0.33820350    -0.03500
Br227      Br  0.14265348  0.12254855  0.27578840    -0.04400
Br228      Br  0.12309086  0.15097047  0.46413085    -0.00400
C229        C  0.77588976  0.77657139  0.72255638     0.01000
C230        C  0.80553851  0.79943990  0.73844468     0.03800
C231        C  0.82638155  0.82383088  0.71527905    -0.12200
C232        C  0.82037477  0.82548220  0.67577099     0.23100
C233        C  0.79449355  0.80220825  0.65855468    -0.12800
C234        C  0.77425059  0.77654569  0.68063527     0.04500
C235        C  0.84427813  0.84957505  0.65162377     0.26900
C236        C  0.83299840  0.88532424  0.64523618    -0.13500
C237        C  0.85718719  0.90857903  0.62474998     0.05000
C238        C  0.89187034  0.89577725  0.60906548    -0.09500
C239        C  0.90177962  0.85946018  0.61298599     0.05900
C240        C  0.87839309  0.83647216  0.63482869    -0.13800
Br241      Br  0.78877854  0.80534993  0.60307432    -0.05900
Br242      Br  0.81948096  0.80131871  0.79174099    -0.00300
Br243      Br  0.84299432  0.95819102  0.61866281     0.00200
Br244      Br  0.89224115  0.78670042  0.64068951    -0.04200
Br245      Br  0.75445762  0.73872168  0.64824963     0.00300
Br246      Br  0.86220075  0.85773159  0.73754423    -0.03500
Br247      Br  0.78384021  0.90212159  0.66302255    -0.04400
Br248      Br  0.94568123  0.84076251  0.58608279    -0.00400
C249        C  0.11898666  0.89925621  0.39978968     0.01000
C250        C  0.10098388  0.86988741  0.38165391     0.03800
C251        C  0.12264990  0.84574594  0.35934227    -0.12200
C252        C  0.16203512  0.85154529  0.35341231     0.23100
C253        C  0.18020520  0.88065944  0.37139380    -0.12800
C254        C  0.15906205  0.90393245  0.39538808     0.04500
C255        C  0.18426428  0.82749676  0.32745673     0.26900
C256        C  0.20405435  0.79822947  0.34231727    -0.13500
C257        C  0.22754580  0.77661723  0.31835623     0.05000
C258        C  0.22614673  0.77985240  0.27658490    -0.09500
C259        C  0.20473540  0.81081722  0.26282467     0.05900
C260        C  0.18605645  0.83475597  0.28826175    -0.13800
Br261      Br  0.23397310  0.88918390  0.36172634    -0.05900
Br262      Br  0.04667950  0.86156346  0.38780766    -0.00300
Br263      Br  0.26446404  0.75004128  0.34830380     0.00200
Br264      Br  0.16010575  0.87742086  0.26968333    -0.04200
Br265      Br  0.18558948  0.94284252  0.42034097     0.00300
Br266      Br  0.09827383  0.80450986  0.33698505    -0.03500
Br267      Br  0.19903335  0.78902627  0.39706049    -0.04400
Br268      Br  0.19359195  0.82062587  0.20962486    -0.00400
C269        C  0.76977109  0.78747949  0.27820482     0.01000
C270        C  0.75539252  0.81854662  0.29921845     0.03800
C271        C  0.77998723  0.84110950  0.32069011    -0.12200
C272        C  0.81853660  0.83223252  0.32562608     0.23100
C273        C  0.83389875  0.80337450  0.30500931    -0.12800
C274        C  0.81140387  0.78410887  0.27834189     0.04500
C275        C  0.84405648  0.85525130  0.34977181     0.26900
C276        C  0.86899876  0.87989961  0.33197223    -0.13500
C277        C  0.89413510  0.90092654  0.35408414     0.05000
C278        C  0.89397840  0.89829031  0.39476098    -0.09500
C279        C  0.86833103  0.87384712  0.41264545     0.05900
C280        C  0.84397529  0.85219018  0.39016950    -0.13800
Br281      Br  0.88780812  0.79236465  0.31162027    -0.05900
Br282      Br  0.70188320  0.83043027  0.30511610    -0.00300
Br283      Br  0.92680249  0.93466292  0.32749555     0.00200
Br284      Br  0.81061655  0.81792694  0.41480222    -0.04200
Br285      Br  0.84325352  0.76303013  0.23815361     0.00300
Br286      Br  0.76106213  0.88469393  0.34466531    -0.03500
Br287      Br  0.86813904  0.88525918  0.27677515    -0.04400
Br288      Br  0.86651259  0.86878275  0.46800559    -0.00400
C289        C  0.77349234  0.21694546  0.27915548     0.01000
C290        C  0.79356169  0.18658020  0.26205821     0.03800
C291        C  0.81736112  0.16401953  0.28412346    -0.12200
C292        C  0.82443280  0.17191589  0.32255077     0.23100
C293        C  0.80572027  0.20050685  0.34033001    -0.12800
C294        C  0.77718867  0.21984591  0.32077628     0.04500
C295        C  0.84879050  0.14792563  0.34580484     0.26900
C296        C  0.83160381  0.11984838  0.36657309    -0.13500
C297        C  0.85382147  0.09824946  0.39075603     0.05000
C298        C  0.89368793  0.10443085  0.39374138    -0.09500
C299        C  0.91090433  0.13234042  0.37242805     0.05900
C300        C  0.88842260  0.15400803  0.34849999    -0.13800
Br301      Br  0.81895139  0.21184461  0.39309890    -0.05900
Br302      Br  0.79507216  0.17574585  0.20789408    -0.00300
Br303      Br  0.82894457  0.05950366  0.41809156     0.00200
Br304      Br  0.91185623  0.19218546  0.31957137    -0.04200
Br305      Br  0.74046889  0.24039997  0.35694151     0.00300
Br306      Br  0.84362344  0.12312559  0.26149068    -0.03500
Br307      Br  0.77741531  0.11080000  0.36128031    -0.04400
Br308      Br  0.96492795  0.14246890  0.37729968    -0.00400
C309        C  0.22148608  0.77120421  0.71984626     0.01000
C310        C  0.22412886  0.77376814  0.67794960     0.03800
C311        C  0.20252742  0.79942755  0.65755788    -0.12200
C312        C  0.17232323  0.81740254  0.67539633     0.23100
C313        C  0.16250678  0.80888858  0.71331430    -0.12800
C314        C  0.18738463  0.78789582  0.73609866     0.04500
C315        C  0.15007339  0.84446519  0.65346691     0.26900
C316        C  0.16504242  0.87925523  0.64792364    -0.13500
C317        C  0.14405009  0.90499644  0.62758509     0.05000
C318        C  0.10861593  0.89579667  0.61148493    -0.09500
C319        C  0.09386078  0.86099710  0.61629015     0.05900
C320        C  0.11490903  0.83509089  0.63654234    -0.13800
Br321      Br  0.11472431  0.82728084  0.73408448    -0.05900
Br322      Br  0.24598497  0.73877299  0.64268518    -0.00300
Br323      Br  0.16290756  0.95358297  0.62364794     0.00200
Br324      Br  0.09692160  0.78622961  0.63893873    -0.04200
Br325      Br  0.17459311  0.78843431  0.79030546     0.00300
Br326      Br  0.21095284  0.80802613  0.60294899    -0.03500
Br327      Br  0.21538375  0.89148017  0.66568734    -0.04400
Br328      Br  0.04525532  0.84866371  0.59443988    -0.03200
C329        C  0.72211820  0.21711846  0.22753503     0.01000
C330        C  0.70044084  0.18850626  0.24579266     0.03800
C331        C  0.67651090  0.16540196  0.22439415    -0.12200
C332        C  0.67055075  0.17130299  0.18526644     0.23100
C333        C  0.69096310  0.19826411  0.16641842    -0.12800
C334        C  0.71943376  0.21802167  0.18574626     0.04500
C335        C  0.64484240  0.14743302  0.16281391     0.26900
C336        C  0.65899743  0.11470476  0.14818088    -0.13500
C337        C  0.63633717  0.09376751  0.12363629     0.05000
C338        C  0.59912501  0.10526115  0.11389399    -0.09500
C339        C  0.58377490  0.13646477  0.13104603     0.05900
C340        C  0.60696194  0.15799874  0.15463956    -0.13800
Br341      Br  0.68049511  0.20670673  0.11245917    -0.05900
Br342      Br  0.69704340  0.18147025  0.30064819    -0.00300
Br343      Br  0.65553618  0.04793052  0.10586147     0.00200
Br344      Br  0.58722808  0.20251622  0.17479300    -0.04200
Br345      Br  0.75767276  0.23624621  0.14979835     0.00300
Br346      Br  0.64930951  0.12617864  0.24882894    -0.03500
Br347      Br  0.70950957  0.09837126  0.16191978    -0.04400
Br348      Br  0.53110819  0.14991157  0.12231823    -0.00400
C349        C  0.37631459  0.10736013  0.10081992     0.01000
C350        C  0.37454657  0.10303743  0.14128099     0.03800
C351        C  0.35307373  0.12708151  0.16395696    -0.12200
C352        C  0.33213463  0.15483883  0.14656536     0.23100
C353        C  0.33113072  0.15739752  0.10620998    -0.12800
C354        C  0.35357792  0.13416563  0.08336970     0.04500
C355        C  0.31120255  0.18121896  0.17104076     0.26900
C356        C  0.27216003  0.17713509  0.17798912    -0.13500
C357        C  0.25191297  0.20277201  0.20002698     0.05000
C358        C  0.27129205  0.23119217  0.22086197    -0.09500
C359        C  0.31286092  0.23113125  0.21664565     0.05900
C360        C  0.33107454  0.20905134  0.18888157    -0.13800
Br361      Br  0.29828645  0.19237648  0.08225628    -0.05900
Br362      Br  0.39867325  0.06270110  0.16633431    -0.00300
Br363      Br  0.19725788  0.19916918  0.19477001     0.00200
Br364      Br  0.38463362  0.21558705  0.17539160    -0.04200
Br365      Br  0.35359566  0.14052743  0.02837676     0.00300
Br366      Br  0.35139227  0.12158964  0.21914038    -0.03500
Br367      Br  0.24635085  0.13629040  0.15525620    -0.04400
Br368      Br  0.34975551  0.25282237  0.25108296    -0.00400
C369        C  0.38007906  0.90210185  0.10182374     0.01000
C370        C  0.39664183  0.86990235  0.11491676     0.03800
C371        C  0.37518534  0.84630555  0.13795502    -0.12200
C372        C  0.33756654  0.85535628  0.14915604     0.23100
C373        C  0.32132177  0.88797085  0.13700182    -0.12800
C374        C  0.34249018  0.91131406  0.11331852     0.04500
C375        C  0.31452834  0.83014473  0.17282272     0.26900
C376        C  0.29011057  0.80590628  0.15486366    -0.13500
C377        C  0.26637329  0.78278192  0.17666552     0.05000
C378        C  0.27007712  0.78057116  0.21846368    -0.09500
C379        C  0.29505880  0.80722875  0.23552472     0.05900
C380        C  0.31599453  0.83174591  0.21281037    -0.13800
Br381      Br  0.26999139  0.90045624  0.15311258    -0.05900
Br382      Br  0.44877300  0.85785550  0.10121782    -0.00300
Br383      Br  0.22583830  0.76283856  0.14503485     0.00200
Br384      Br  0.34883682  0.86743350  0.23613946    -0.04200
Br385      Br  0.32087662  0.95705213  0.09930085     0.00300
Br386      Br  0.39715836  0.80129548  0.15361029    -0.03500
Br387      Br  0.28833510  0.80677960  0.09895986    -0.04400
Br388      Br  0.30702820  0.80935631  0.28966598    -0.00400
C389        C  0.71973292  0.77736579  0.77516758     0.01000
C390        C  0.69095676  0.76060463  0.79952020     0.03800
C391        C  0.66880401  0.78079543  0.82590422    -0.12200
C392        C  0.67253159  0.81797752  0.82783217     0.23100
C393        C  0.69760011  0.83563658  0.80275600    -0.12800
C394        C  0.71907912  0.81637162  0.77505382     0.04500
C395        C  0.64814760  0.83925924  0.85462266     0.26900
C396        C  0.60939641  0.84533538  0.84604805    -0.13500
C397        C  0.58741133  0.86878578  0.86898867     0.05000
C398        C  0.60503716  0.88914232  0.89857304    -0.09500
C399        C  0.64373156  0.88134433  0.90816446     0.05900
C400        C  0.66432959  0.85529972  0.88724965    -0.13800
Br401      Br  0.70117679  0.88757966  0.80608463    -0.05900
Br402      Br  0.68115991  0.70976955  0.80161284    -0.00300
Br403      Br  0.53284658  0.87075317  0.86006668     0.00200
Br404      Br  0.71542012  0.84201117  0.90260188    -0.04200
Br405      Br  0.73630318  0.84720287  0.73345621     0.00300
Br406      Br  0.63550511  0.75748286  0.86310857    -0.03500
Br407      Br  0.58664220  0.82204825  0.80203789    -0.04400
Br408      Br  0.67114417  0.90699282  0.94769497    -0.00400
C409        C  0.27766147  0.23172190  0.77258487     0.01000
C410        C  0.31929563  0.23394921  0.76982631     0.03800
C411        C  0.34298793  0.21410215  0.79484535    -0.12200
C412        C  0.32781361  0.18701070  0.81790818     0.23100
C413        C  0.28859277  0.17981251  0.81685041    -0.12800
C414        C  0.26362741  0.20138349  0.79474627     0.04500
C415        C  0.35384192  0.16291612  0.83970895     0.26900
C416        C  0.36439566  0.12960322  0.82360707    -0.13500
C417        C  0.38688275  0.10545636  0.84466340     0.05000
C418        C  0.39956007  0.11478823  0.88170047    -0.09500
C419        C  0.39101702  0.14886408  0.89696045     0.05900
C420        C  0.36781310  0.17281223  0.87619942    -0.13800
Br421      Br  0.26912715  0.14151099  0.84929867    -0.05900
Br422      Br  0.34880308  0.25427813  0.72754859    -0.00300
Br423      Br  0.39846333  0.05878680  0.82340664     0.00200
Br424      Br  0.35511809  0.21892923  0.89784348    -0.04200
Br425      Br  0.21030076  0.18916580  0.80095802     0.00300
Br426      Br  0.39786989  0.22217779  0.79650435    -0.03500
Br427      Br  0.34737119  0.11684195  0.77275590    -0.04400
Br428      Br  0.41266564  0.16312870  0.94548141    -0.00400
C429        C  0.71423548  0.78875606  0.23064512     0.01000
C430        C  0.73146905  0.81680301  0.20734298     0.03800
C431        C  0.70921557  0.83894389  0.18323959    -0.12200
C432        C  0.66961289  0.83483750  0.18155447     0.23100
C433        C  0.65133561  0.81005057  0.20533709    -0.12800
C434        C  0.67239611  0.78923938  0.23177697     0.04500
C435        C  0.64644071  0.85891157  0.15693028     0.26900
C436        C  0.63579327  0.89305514  0.17076315    -0.13500
C437        C  0.61160326  0.91505365  0.14887871     0.05000
C438        C  0.59948590  0.90360438  0.11227924    -0.09500
C439        C  0.61140021  0.87011593  0.09777952     0.05900
C440        C  0.63417319  0.84745920  0.12040251    -0.13800
Br441      Br  0.59594836  0.80625739  0.20193023    -0.05900
Br442      Br  0.78581483  0.82433642  0.20174700    -0.00300
Br443      Br  0.59664820  0.96150341  0.16848198     0.00200
Br444      Br  0.64837309  0.80074689  0.10138418    -0.04200
Br445      Br  0.63941707  0.77044416  0.27245351     0.00300
Br446      Br  0.73291930  0.87347961  0.14886089    -0.03500
Br447      Br  0.65544595  0.90999866  0.21925086    -0.04400
Br448      Br  0.59591560  0.85506892  0.04707959    -0.00400
C449        C  0.39540952  0.89492328  0.88345231     0.01000
C450        C  0.38898912  0.89943740  0.84377763     0.03800
C451        C  0.36834590  0.87349791  0.82321050    -0.12200
C452        C  0.35194500  0.84392210  0.84250109     0.23100
C453        C  0.35838675  0.83940507  0.88226514    -0.12800
C454        C  0.38044071  0.86465084  0.90256006     0.04500
C455        C  0.32591534  0.81943640  0.82102091     0.26900
C456        C  0.29091658  0.83236834  0.80767617    -0.13500
C457        C  0.27062091  0.81338354  0.77922033     0.05000
C458        C  0.27740483  0.77540684  0.77272276    -0.09500
C459        C  0.31196194  0.76187456  0.79099919     0.05900
C460        C  0.33732884  0.78480736  0.81087560    -0.13800
Br461      Br  0.33627239  0.79933720  0.90942298    -0.05900
Br462      Br  0.40446135  0.94303830  0.81811154    -0.00300
Br463      Br  0.24433274  0.84614429  0.74586293     0.00200
Br464      Br  0.38809695  0.76877236  0.82525527    -0.04200
Br465      Br  0.39024724  0.85771272  0.95668382     0.00300
Br466      Br  0.36154484  0.87910920  0.76846392    -0.03500
Br467      Br  0.27233644  0.87813012  0.82697611    -0.04400
Br468      Br  0.32541108  0.71202400  0.79582365    -0.00400
C469        C  0.89181666  0.10742825  0.61503968     0.01000
C470        C  0.85351586  0.09981110  0.62501399     0.03800
C471        C  0.83172933  0.12502222  0.64563089    -0.12200
C472        C  0.84843693  0.15761295  0.65721648     0.23100
C473        C  0.88662779  0.16539026  0.64703075    -0.12800
C474        C  0.90852358  0.14006931  0.62651987     0.04500
C475        C  0.82592273  0.18376371  0.68019462     0.26900
C476        C  0.80006869  0.20654485  0.66204085    -0.13500
C477        C  0.77825761  0.23163966  0.68340847     0.05000
C478        C  0.77980209  0.23231363  0.72527832    -0.09500
C479        C  0.80975883  0.21049714  0.74217190     0.05900
C480        C  0.83159164  0.18632268  0.71975544    -0.13800
Br481      Br  0.90819418  0.21146271  0.65980336    -0.05900
Br482      Br  0.83128693  0.05393362  0.61285298    -0.00300
Br483      Br  0.75487895  0.26737907  0.65043706     0.00200
Br484      Br  0.86723588  0.15320949  0.74354466    -0.04200
Br485      Br  0.96108860  0.15056972  0.61342659     0.00300
Br486      Br  0.77859493  0.11522471  0.65663762    -0.03500
Br487      Br  0.79619879  0.20332339  0.60641463    -0.04400
Br488      Br  0.82019426  0.20785959  0.79657228    -0.00400
C489        C  0.60850717  0.11411283  0.89290685     0.01000
C490        C  0.59890374  0.12470151  0.85470211     0.03800
C491        C  0.62148345  0.14996103  0.83501121    -0.12200
C492        C  0.65379090  0.16486181  0.85252238     0.23100
C493        C  0.66314368  0.15568221  0.89037963    -0.12800
C494        C  0.64054074  0.13085230  0.91085553     0.04500
C495        C  0.67937865  0.18807582  0.82939527     0.26900
C496        C  0.70863448  0.17219266  0.80796242    -0.13500
C497        C  0.72757495  0.19172823  0.77906721     0.05000
C498        C  0.72510894  0.23067417  0.77783858    -0.09500
C499        C  0.69399690  0.24598764  0.80039491     0.05900
C500        C  0.67081127  0.22433541  0.82434294    -0.13800
Br501      Br  0.70800346  0.17668254  0.91354317    -0.05900
Br502      Br  0.55584148  0.10531049  0.82680993    -0.00300
Br503      Br  0.74383177  0.16000500  0.73778032     0.00200
Br504      Br  0.62743888  0.24413231  0.85215797    -0.04200
Br505      Br  0.65485875  0.12151044  0.96358199     0.00300
Br506      Br  0.60921800  0.16384914  0.78284167    -0.03500
Br507      Br  0.71971933  0.12165223  0.81599330    -0.04400
Br508      Br  0.68329978  0.29670293  0.80447284    -0.00400
C509        C  0.22167375  0.28592124  0.22381552     0.01000
C510        C  0.20061042  0.31412018  0.24380233     0.03800
C511        C  0.17585331  0.33766650  0.22417442    -0.12200
C512        C  0.17215136  0.33568829  0.18440163     0.23100
C513        C  0.19440566  0.31140917  0.16336593    -0.12800
C514        C  0.21998340  0.28766120  0.18192558     0.04500
C515        C  0.14679615  0.36140880  0.16415483     0.26900
C516        C  0.11041422  0.35058081  0.15116013    -0.13500
C517        C  0.08720655  0.37478408  0.13083724     0.05000
C518        C  0.10064706  0.40957237  0.12286690    -0.09500
C519        C  0.13615690  0.42094714  0.13747410     0.05900
C520        C  0.15932402  0.39683879  0.15784724    -0.13800
Br521      Br  0.19057037  0.31295906  0.10766942    -0.05900
Br522      Br  0.19967702  0.32092312  0.29882433    -0.00300
Br523      Br  0.03731043  0.36012582  0.11326481     0.00200
Br524      Br  0.20836522  0.41223580  0.17714299    -0.04200
Br525      Br  0.25531984  0.26531359  0.14549351     0.00300
Br526      Br  0.14431337  0.37229500  0.25179047    -0.03500
Br527      Br  0.09268680  0.30244282  0.16054509    -0.04400
Br528      Br  0.15202037  0.47021284  0.13172109    -0.00400
C529        C  0.09062411  0.61821150  0.11475031     0.01000
C530        C  0.10203519  0.60962377  0.15246059     0.03800
C531        C  0.12471806  0.63377684  0.17325305    -0.12200
C532        C  0.13648371  0.66624415  0.15623840     0.23100
C533        C  0.12415039  0.67527219  0.11903782    -0.12800
C534        C  0.10162874  0.65104447  0.09811392     0.04500
C535        C  0.16401069  0.68935746  0.17684061     0.26900
C536        C  0.15080113  0.71762408  0.19943804    -0.13500
C537        C  0.17529681  0.73421427  0.22600278     0.05000
C538        C  0.21665063  0.72986317  0.22317837    -0.09500
C539        C  0.22920763  0.70084251  0.19822163     0.05900
C540        C  0.20282830  0.68042718  0.17676072    -0.13800
Br541      Br  0.13817751  0.72071573  0.09679022    -0.05900
Br542      Br  0.08992009  0.56346064  0.17454665    -0.00300
Br543      Br  0.14636836  0.75189772  0.26977247     0.00200
Br544      Br  0.21971350  0.64149156  0.14363107    -0.04200
Br545      Br  0.08610097  0.66265993  0.04646830     0.00300
Br546      Br  0.14083023  0.62202331  0.22476278    -0.03500
Br547      Br  0.09785194  0.73267898  0.19452339    -0.04400
Br548      Br  0.28193408  0.68964663  0.18678986    -0.00400
C549        C  0.76400123  0.73401496  0.22723997     0.01000
C550        C  0.76420596  0.73405327  0.18520903     0.03800
C551        C  0.78868854  0.71089870  0.16408362    -0.12200
C552        C  0.80871320  0.68340960  0.18219432     0.23100
C553        C  0.80553301  0.67922290  0.22193462    -0.12800
C554        C  0.78517831  0.70456472  0.24449281     0.04500
C555        C  0.83131551  0.65748291  0.15849717     0.26900
C556        C  0.81401658  0.62559399  0.14557255    -0.13500
C557        C  0.83413874  0.60217936  0.12078077     0.05000
C558        C  0.87224305  0.61004693  0.10974228    -0.09500
C559        C  0.88898667  0.64254772  0.12169196     0.05900
C560        C  0.86866252  0.66614267  0.14600330    -0.13800
Br561      Br  0.83108962  0.63863488  0.24534976    -0.05900
Br562      Br  0.72823023  0.75765740  0.15124428    -0.00300
Br563      Br  0.80915315  0.55944002  0.10245432     0.00200
Br564      Br  0.89170125  0.71077805  0.16141976    -0.04200
Br565      Br  0.79356842  0.69945516  0.29909959     0.00300
Br566      Br  0.79382411  0.71464121  0.10848416    -0.03500
Br567      Br  0.76254491  0.61425400  0.16213075    -0.04400
Br568      Br  0.93883219  0.65603440  0.10225069    -0.00400
C569        C  0.10646492  0.60579481  0.88848365     0.01000
C570        C  0.13631840  0.59123527  0.86571014     0.03800
C571        C  0.15841281  0.61364161  0.84150150    -0.12200
C572        C  0.15120770  0.65087871  0.84032120     0.23100
C573        C  0.12060445  0.66515811  0.86213270    -0.12800
C574        C  0.09861417  0.64279176  0.88635173     0.04500
C575        C  0.17628348  0.67541241  0.81721455     0.26900
C576        C  0.20521622  0.69500701  0.83521572    -0.13500
C577        C  0.22595156  0.72174345  0.81507939     0.05000
C578        C  0.22421438  0.72415081  0.77332396    -0.09500
C579        C  0.19408816  0.70286936  0.75593689     0.05900
C580        C  0.16944602  0.68095410  0.77818045    -0.13800
Br581      Br  0.10838255  0.71542093  0.85785287    -0.05900
Br582      Br  0.14702731  0.54054804  0.86767241    -0.00300
Br583      Br  0.24697431  0.75730518  0.84986911     0.00200
Br584      Br  0.12598788  0.65716659  0.75517262    -0.04200
Br585      Br  0.05820670  0.66293800  0.91748639     0.00300
Br586      Br  0.19794150  0.59325454  0.80924095    -0.03500
Br587      Br  0.21491472  0.68574082  0.88910087    -0.04400
Br588      Br  0.18701327  0.69774973  0.70133785    -0.00400
C589        C  0.77673122  0.73120369  0.77827794     0.01000
C590        C  0.77314601  0.73046682  0.81995208     0.03800
C591        C  0.79075871  0.70332959  0.84168129    -0.12200
C592        C  0.82033243  0.68288889  0.82586503     0.23100
C593        C  0.83116969  0.68855499  0.78746411    -0.12800
C594        C  0.80883659  0.71077787  0.76322392     0.04500
C595        C  0.84188218  0.65735684  0.85062832     0.26900
C596        C  0.87498287  0.66885588  0.87011697    -0.13500
C597        C  0.89620141  0.64440180  0.89236338     0.05000
C598        C  0.88473865  0.60830385  0.89467056    -0.09500
C599        C  0.85046605  0.59737933  0.87715200     0.05900
C600        C  0.82848685  0.62208118  0.85626721    -0.13800
Br601      Br  0.87581296  0.66360256  0.76777520    -0.05900
Br602      Br  0.75761001  0.77004307  0.85275451    -0.00300
Br603      Br  0.93919371  0.66069234  0.92205070     0.00200
Br604      Br  0.77842149  0.60821134  0.83902359    -0.04200
Br605      Br  0.82155962  0.70732907  0.70927371     0.00300
Br606      Br  0.77634212  0.69557531  0.89494031    -0.03500
Br607      Br  0.88934587  0.71872411  0.86859324    -0.04400
Br608      Br  0.83359435  0.54835245  0.88142830    -0.00400
C609        C  0.11329862  0.40210206  0.90347963     0.01000
C610        C  0.15268741  0.40952311  0.89784872     0.03800
C611        C  0.17548150  0.38652038  0.87493807    -0.12200
C612        C  0.15955930  0.35531630  0.85871837     0.23100
C613        C  0.12075214  0.34727980  0.86542001    -0.12800
C614        C  0.09769382  0.37072051  0.88723786     0.04500
C615        C  0.18302652  0.33168679  0.83313050     0.26900
C616        C  0.18362175  0.33773877  0.79365858    -0.13500
C617        C  0.20253975  0.31371194  0.76845503     0.05000
C618        C  0.22554574  0.28394988  0.78238674    -0.09500
C619        C  0.22784476  0.28176087  0.82436304     0.05900
C620        C  0.20433420  0.30351064  0.84835409    -0.13800
Br621      Br  0.09891255  0.30428316  0.84406164    -0.05900
Br622      Br  0.17548770  0.45209064  0.91938832    -0.00300
Br623      Br  0.19018295  0.32174006  0.71525033     0.00200
Br624      Br  0.20214310  0.29672363  0.90374812    -0.04200
Br625      Br  0.04480447  0.35892404  0.89551810     0.00300
Br626      Br  0.22815590  0.39848038  0.86399343    -0.03500
Br627      Br  0.15643594  0.37937340  0.77444540    -0.04400
Br628      Br  0.26651764  0.25750497  0.85455222    -0.00400
C629        C  0.77455945  0.26897208  0.22639331     0.01000
C630        C  0.75696882  0.29804505  0.20504367     0.03800
C631        C  0.77879285  0.32163999  0.18187769    -0.12200
C632        C  0.81797083  0.31620976  0.17648212     0.23100
C633        C  0.83591772  0.28757663  0.19474335    -0.12800
C634        C  0.81612164  0.26679465  0.22242783     0.04500
C635        C  0.84118482  0.34290719  0.15456553     0.26900
C636        C  0.84648495  0.33953925  0.11458128    -0.13500
C637        C  0.86786390  0.36542558  0.09412997     0.05000
C638        C  0.88397715  0.39516357  0.11359645    -0.09500
C639        C  0.87808882  0.39854995  0.15377256     0.05900
C640        C  0.85719957  0.37232224  0.17408452    -0.13800
Br641      Br  0.88904502  0.27786170  0.18166663    -0.05900
Br642      Br  0.70250646  0.30552982  0.20142660    -0.00300
Br643      Br  0.87555430  0.35911589  0.03952175     0.00200
Br644      Br  0.84954365  0.37689366  0.22893513    -0.04200
Br645      Br  0.85174304  0.24468780  0.25771723     0.00300
Br646      Br  0.75491069  0.36090231  0.15449916    -0.03500
Br647      Br  0.82405635  0.29937512  0.08800274    -0.04400
Br648      Br  0.89542108  0.44047403  0.18121796    -0.00400
C649        C  0.78135749  0.27883207  0.77867575     0.01000
C650        C  0.81340436  0.29793275  0.76124413     0.03800
C651        C  0.83811854  0.31954544  0.78342113    -0.12200
C652        C  0.82983390  0.32623666  0.82202319     0.23100
C653        C  0.80002320  0.30804023  0.84020073    -0.12800
C654        C  0.77905710  0.28169252  0.82040308     0.04500
C655        C  0.85379064  0.35079465  0.84503187     0.26900
C656        C  0.88704027  0.33760437  0.86289219    -0.13500
C657        C  0.90689362  0.35928109  0.88908162     0.05000
C658        C  0.89331525  0.39386236  0.89776206    -0.09500
C659        C  0.85934662  0.40651948  0.88098753     0.05900
C660        C  0.84024330  0.38545966  0.85389046    -0.13800
Br661      Br  0.78998276  0.31834751  0.89418801    -0.05900
Br662      Br  0.82408231  0.30022764  0.70678978    -0.00300
Br663      Br  0.95026140  0.34039624  0.91602848     0.00200
Br664      Br  0.79471039  0.40395951  0.83021480    -0.04200
Br665      Br  0.75800105  0.24685145  0.85606322     0.00300
Br666      Br  0.88305774  0.34203204  0.76093524    -0.03500
Br667      Br  0.90419697  0.28925704  0.85280319    -0.04400
Br668      Br  0.83789782  0.45224052  0.89589702    -0.00400
C669        C  0.72137485  0.72682244  0.72600436     0.01000
C670        C  0.72694849  0.68833893  0.72274449     0.03800
C671        C  0.70880799  0.66848273  0.69369339    -0.12200
C672        C  0.67698957  0.68242776  0.67498522     0.23100
C673        C  0.66542774  0.71756541  0.68241086    -0.12800
C674        C  0.68821802  0.74037474  0.70534888     0.04500
C675        C  0.65252038  0.65816739  0.65200014     0.26900
C676        C  0.65683713  0.65580805  0.61188220    -0.13500
C677        C  0.63374660  0.63216835  0.59067235     0.05000
C678        C  0.60861652  0.60825631  0.60989866    -0.09500
C679        C  0.60503234  0.61044414  0.65053474     0.05900
C680        C  0.62559680  0.63648819  0.67105103    -0.13800
Br681      Br  0.61795568  0.73403432  0.65971109    -0.05900
Br682      Br  0.74590806  0.65668906  0.76212075    -0.00300
Br683      Br  0.63541916  0.63477823  0.53522036     0.00200
Br684      Br  0.61734943  0.64271410  0.72571681    -0.04200
Br685      Br  0.67194423  0.78967612  0.70368334     0.00300
Br686      Br  0.72546717  0.62020010  0.68116535    -0.03500
Br687      Br  0.69506407  0.68439801  0.58611606    -0.04400
Br688      Br  0.57506772  0.57642488  0.67973878    -0.00400
C689        C  0.38099460  0.40706101  0.60600790     0.01000
C690        C  0.38881512  0.37021002  0.60712120     0.03800
C691        C  0.36824085  0.34798373  0.63237994    -0.12200
C692        C  0.33756214  0.36212425  0.65441672     0.23100
C693        C  0.32861036  0.39903570  0.65175812    -0.12800
C694        C  0.35089975  0.42157648  0.62818030     0.04500
C695        C  0.31350661  0.33768437  0.67840495     0.26900
C696        C  0.28858192  0.31367977  0.66061377    -0.13500
C697        C  0.26625280  0.28924321  0.68242595     0.05000
C698        C  0.27004071  0.28690895  0.72424109    -0.09500
C699        C  0.29404311  0.31447074  0.74122191     0.05900
C700        C  0.31557185  0.33865397  0.71844541    -0.13800
Br701      Br  0.28595154  0.41888355  0.68025828    -0.05900
Br702      Br  0.42645327  0.35022893  0.57229762    -0.00300
Br703      Br  0.22752664  0.26674651  0.65054638     0.00200
Br704      Br  0.35104807  0.37216360  0.74184307    -0.04200
Br705      Br  0.34061897  0.47244474  0.62628826     0.00300
Br706      Br  0.38253097  0.29824806  0.63683345    -0.03500
Br707      Br  0.28447395  0.31624879  0.60479491    -0.04400
Br708      Br  0.30392444  0.31870086  0.79558487    -0.00400
C709        C  0.61029461  0.39444510  0.39039327     0.01000
C710        C  0.62239653  0.40233500  0.35252979     0.03800
C711        C  0.64520697  0.37749556  0.33208868    -0.12200
C712        C  0.65875675  0.34629349  0.35047703     0.23100
C713        C  0.64759444  0.33918953  0.38866460    -0.12800
C714        C  0.62122627  0.36185544  0.40727185     0.04500
C715        C  0.68152216  0.31949763  0.32822926     0.26900
C716        C  0.66277370  0.29105320  0.31043037    -0.13500
C717        C  0.68172460  0.26980502  0.28261159     0.05000
C718        C  0.72328948  0.27061468  0.27868114    -0.09500
C719        C  0.74186204  0.29966496  0.29930605     0.05900
C720        C  0.72075584  0.32415662  0.32231185    -0.13800
Br721      Br  0.66835596  0.29862148  0.41563664    -0.05900
Br722      Br  0.60862064  0.44718612  0.32868347    -0.00300
Br723      Br  0.64520767  0.24938981  0.24689867     0.00200
Br724      Br  0.74573061  0.36304870  0.34931418    -0.04200
Br725      Br  0.59512348  0.34563113  0.45270588     0.00300
Br726      Br  0.65724295  0.38561424  0.27858885    -0.03500
Br727      Br  0.60959970  0.28217278  0.32402392    -0.04400
Br728      Br  0.79666630  0.30557930  0.30249557    -0.00400
C729        C  0.39449843  0.60553439  0.37806202     0.01000
C730        C  0.38383680  0.63993172  0.39119883     0.03800
C731        C  0.36225719  0.66297816  0.36760748    -0.12200
C732        C  0.34932936  0.65127696  0.33133786     0.23100
C733        C  0.35956159  0.61665068  0.31829542    -0.12800
C734        C  0.38207681  0.59390642  0.34151504     0.04500
C735        C  0.32439088  0.67517275  0.30745289     0.26900
C736        C  0.28472635  0.66994131  0.30641273    -0.13500
C737        C  0.26049907  0.69467931  0.28736480     0.05000
C738        C  0.27573287  0.72492592  0.26598811    -0.09500
C739        C  0.31738652  0.72481688  0.26208187     0.05900
C740        C  0.34048140  0.70281789  0.28566215    -0.13800
Br741      Br  0.34236702  0.60032334  0.26862880    -0.05900
Br742      Br  0.39867893  0.65561667  0.44180049    -0.00300
Br743      Br  0.20662653  0.68754834  0.29749344     0.00200
Br744      Br  0.39561261  0.70923548  0.28723131    -0.04200
Br745      Br  0.39322408  0.54574611  0.32439715     0.00300
Br746      Br  0.35120314  0.71104880  0.38478712    -0.03500
Br747      Br  0.26351849  0.62943784  0.33408667    -0.04400
Br748      Br  0.34715402  0.74521292  0.22008321    -0.00400
C749        C  0.61159349  0.60737698  0.39484034     0.01000
C750        C  0.59262236  0.63903134  0.38369502     0.03800
C751        C  0.61196687  0.66458500  0.36125828    -0.12200
C752        C  0.64995235  0.65807583  0.34919050     0.23100
C753        C  0.66847649  0.62596097  0.35949894    -0.12800
C754        C  0.64945494  0.60072088  0.38257046     0.04500
C755        C  0.67108009  0.68516385  0.32626781     0.26900
C756        C  0.67158620  0.68289974  0.28637881    -0.13500
C757        C  0.69258699  0.70781478  0.26424078     0.05000
C758        C  0.71586284  0.73568804  0.28178606    -0.09500
C759        C  0.71613413  0.73526082  0.32378841     0.05900
C760        C  0.69278547  0.71113254  0.34489278    -0.13800
Br761      Br  0.71963432  0.61628250  0.34094481    -0.05900
Br762      Br  0.54010206  0.64745659  0.39938327    -0.00300
Br763      Br  0.68257488  0.70407642  0.20996383     0.00200
Br764      Br  0.69176705  0.71079484  0.40089930    -0.04200
Br765      Br  0.67437001  0.55592944  0.39476137     0.00300
Br766      Br  0.58634884  0.70830271  0.34692764    -0.03500
Br767      Br  0.64202301  0.64491300  0.26244634    -0.04400
Br768      Br  0.75095870  0.76047495  0.35730030    -0.00400
C769        C  0.72414298  0.28118945  0.72886325     0.01000
C770        C  0.69100419  0.26633974  0.70949771     0.03800
C771        C  0.66446639  0.28849311  0.69029324    -0.12200
C772        C  0.67277585  0.32457670  0.68385599     0.23100
C773        C  0.70567155  0.33947562  0.69967621    -0.12800
C774        C  0.72739880  0.31993015  0.72633084     0.04500
C775        C  0.64655581  0.34748738  0.66110793     0.26900
C776        C  0.64647298  0.34489771  0.62087008    -0.13500
C777        C  0.62340373  0.36798476  0.59915873     0.05000
C778        C  0.60175935  0.39544529  0.61711576    -0.09500
C779        C  0.60173260  0.39776762  0.65784498     0.05900
C780        C  0.62317835  0.37309449  0.67965976    -0.13800
Br781      Br  0.71974400  0.38813327  0.68590954    -0.05900
Br782      Br  0.68115403  0.21593695  0.70323021    -0.00300
Br783      Br  0.62075667  0.36021283  0.54478597     0.00200
Br784      Br  0.62128746  0.37436951  0.73520683    -0.04200
Br785      Br  0.74897309  0.35173771  0.76415827     0.00300
Br786      Br  0.61685057  0.26939047  0.67063064    -0.03500
Br787      Br  0.67880990  0.31010864  0.59526794    -0.04400
Br788      Br  0.57552290  0.43608109  0.68456410    -0.00400
C789        C  0.28079528  0.72672384  0.72171185     0.01000
C790        C  0.28426480  0.68770555  0.72184413     0.03800
C791        C  0.30988155  0.67003914  0.69654844    -0.12200
C792        C  0.33219961  0.68933612  0.67042890     0.23100
C793        C  0.33269636  0.72673507  0.67193748    -0.12800
C794        C  0.30903289  0.74541732  0.69838541     0.04500
C795        C  0.35582330  0.66941952  0.64186992     0.26900
C796        C  0.39545502  0.66548418  0.64748199    -0.13500
C797        C  0.41696472  0.64285703  0.62327484     0.05000
C798        C  0.39833838  0.62136743  0.59548110    -0.09500
C799        C  0.35848426  0.62617357  0.58926112     0.05900
C800        C  0.33776950  0.65089898  0.61170080    -0.13800
Br801      Br  0.36345670  0.75218025  0.63423033    -0.05900
Br802      Br  0.26267010  0.65467943  0.75935430    -0.00300
Br803      Br  0.47209513  0.64265347  0.62817923     0.00200
Br804      Br  0.28356014  0.65717149  0.60315459    -0.04200
Br805      Br  0.31379930  0.79713576  0.69632001     0.00300
Br806      Br  0.31698237  0.61818119  0.69821346    -0.03500
Br807      Br  0.41977121  0.68887875  0.69042799    -0.04400
Br808      Br  0.32998149  0.59739457  0.55287813    -0.00400
C809        C  0.38855480  0.40264009  0.38619762     0.01000
C810        C  0.34796486  0.40383182  0.38971846     0.03800
C811        C  0.32523966  0.38052044  0.36779415    -0.12200
C812        C  0.34255721  0.35610558  0.34221546     0.23100
C813        C  0.38252441  0.35520378  0.33798690    -0.12800
C814        C  0.40556670  0.37854621  0.35942836     0.04500
C815        C  0.31873065  0.33145073  0.31921877     0.26900
C816        C  0.30376605  0.30059255  0.33595848    -0.13500
C817        C  0.27671818  0.27982848  0.31610629     0.05000
C818        C  0.27313166  0.28275049  0.27446647    -0.09500
C819        C  0.29269123  0.31337707  0.25768666     0.05900
C820        C  0.31167485  0.33877972  0.28066993    -0.13800
Br821      Br  0.40557840  0.32145773  0.30256657    -0.05900
Br822      Br  0.32188232  0.43864987  0.42201623    -0.00300
Br823      Br  0.24070472  0.25868520  0.35230082     0.00200
Br824      Br  0.33056819  0.38340839  0.25918283    -0.04200
Br825      Br  0.46032482  0.37618867  0.35116383     0.00300
Br826      Br  0.27003621  0.38240347  0.37212879    -0.03500
Br827      Br  0.31953860  0.28797453  0.38755477    -0.04400
Br828      Br  0.30025193  0.32084800  0.20334827    -0.00400
loop_ 
_geom_bond_atom_site_label_1 
_geom_bond_atom_site_label_2 
_geom_bond_distance 
_geom_bond_site_symmetry_2 
_ccdc_geom_bond_type 
N1            N2   1.319       .  A
N1            N7   1.311       .  A
N1          Mn30   2.186       .  S
N2            C9   1.352       .  A
N3            N5   1.314       .  A
N3            N4   1.322       .  A
N3          Mn19   2.206       .  S
N4           C10   1.353       .  A
N5            N6   1.324       .  A
N5          Mn30   2.212       .  S
N6           C10   1.356       .  A
N7            N8   1.317       .  A
N7          Mn19   2.190       .  S
N8            C9   1.352       .  A
C9          C809   1.488       .  S
C10         C729   1.490       .  S
N11          N17   1.316       .  A
N11          N12   1.316       .  A
N11         Mn41   2.194       .  S
N12          C20   1.355       .  A
N13          N14   1.320       .  A
N13          N15   1.317       .  A
N13         Mn19   2.198       .  S
N14          C21   1.350       .  A
N15          N16   1.318       .  A
N15         Mn41   2.190       .  S
N16          C21   1.350       .  A
N17          N18   1.313       .  A
N17         Mn19   2.181       .  S
N18          C20   1.351       .  A
Mn19        Cl43   2.536       .  S
C20         C798   1.484       .  S
C21         C689   1.466       .  S
N22          N23   1.313       .  A
N22          N28   1.319       .  A
N22         Mn30   2.175       .  S
N23          C31   1.347       .  A
N24          N26   1.320       .  A
N24          N25   1.321       .  A
N24         Mn42   2.217       .  S
N25          C32   1.355       .  A
N26          N27   1.320       .  A
N26         Mn30   2.199       .  S
N27          C32   1.350       .  A
N28          N29   1.320       .  A
N28         Mn42   2.208       .  S
N29          C31   1.354       .  A
Mn30        Cl43   2.552       .  S
C31         C749   1.464       .  S
C32         C709   1.479       .  S
N33          N34   1.323       .  A
N33          N39   1.316       .  A
N33         Mn41   2.209       .  S
N34          C44   1.354       .  A
N35          N36   1.320       .  A
N35          N37   1.314       .  A
N35         Mn42   2.208       .  S
N36          C45   1.356       .  A
N37          N38   1.319       .  A
N37         Mn41   2.194       .  S
N38          C45   1.352       .  A
N39          N40   1.321       .  A
N39         Mn42   2.217       .  S
N40          C44   1.355       .  A
Mn41        Cl43   2.551       .  S
Mn42        Cl43   2.544       .  S
C44         C778   1.495       .  S
C45         C678   1.490       .  S
N46          N47   1.319       .  A
N46          N52   1.316       .  A
N46         Mn75   2.201       .  S
N47          C54   1.351       .  A
N48          N50   1.319       .  A
N48          N49   1.319       .  A
N48         Mn64   2.201   1_556  S
N49          C55   1.350       .  A
N50          N51   1.323       .  A
N50         Mn75   2.220       .  S
N51          C55   1.354       .  A
N52          N53   1.318       .  A
N52         Mn64   2.188   1_556  S
N53          C54   1.350       .  A
C54         C658   1.466       .  S
C55         C598   1.476       .  S
N56          N62   1.315       .  A
N56          N57   1.320       .  A
N56         Mn86   2.208       .  S
N57          C65   1.353       .  A
N58          N59   1.321       .  A
N58          N60   1.314       .  A
N58         Mn64   2.203       .  S
N59          C66   1.354       .  A
N60          N61   1.322       .  A
N60         Mn86   2.216       .  S
N61          C66   1.357       .  A
N62          N63   1.323       .  A
N62         Mn64   2.204       .  S
N63          C65   1.355       .  A
Mn64        Cl88   2.553       .  S
C65         C558   1.484       .  S
C66         C638   1.494       .  S
N67          N68   1.324       .  A
N67          N73   1.318       .  A
N67         Mn75   2.212   1_455  S
N68          C76   1.353       .  A
N69          N71   1.316       .  A
N69          N70   1.321       .  A
N69         Mn87   2.201   1_556  S
N70          C77   1.353       .  A
N71          N72   1.321       .  A
N71         Mn75   2.217   1_455  S
N72          C77   1.356       .  A
N73          N74   1.325       .  A
N73         Mn87   2.228   1_556  S
N74          C76   1.356       .  A
Mn75        Cl88   2.550   1_556  S
C76         C569   1.489       .  S
C77         C609   1.489       .  S
N78          N79   1.320       .  A
N78          N84   1.318       .  A
N78         Mn86   2.193   1_455  S
N79          C89   1.350       .  A
N80          N81   1.318       .  A
N80          N82   1.319       .  A
N80         Mn87   2.197       .  S
N81          C90   1.350       .  A
N82          N83   1.319       .  A
N82         Mn86   2.203   1_455  S
N83          C90   1.351       .  A
N84          N85   1.320       .  A
N84         Mn87   2.209       .  S
N85          C89   1.352       .  A
Mn86        Cl88   2.548       .  S
Mn87        Cl88   2.549   1_455  S
C89         C518   1.472       .  S
C90         C529   1.469       .  S
C91         C478   1.600       .  S
C91         C498   1.603       .  S
C91         C649   1.607       .  S
C91         C769   1.604       .  S
N92          N93   1.318       .  A
N92          N98   1.311       .  A
N92        Mn121   2.193       .  S
N93         C100   1.353       .  A
N94          N96   1.312       .  A
N94          N95   1.320       .  A
N94        Mn110   2.203   1_565  S
N95         C101   1.354       .  A
N96          N97   1.320       .  A
N96        Mn121   2.200   1_565  S
N97         C101   1.354       .  A
N98          N99   1.319       .  A
N98        Mn110   2.195       .  S
N99         C100   1.354       .  A
C100        C489   1.504       .  S
C101        C398   1.498       .  S
N102        N108   1.315       .  A
N102        N103   1.321       .  A
N102       Mn132   2.201   1_565  S
N103        C111   1.353       .  A
N104        N105   1.319       .  A
N104        N106   1.315       .  A
N104       Mn110   2.206   1_554  S
N105        C112   1.354       .  A
N106        N107   1.319       .  A
N106       Mn132   2.184       .  S
N107        C112   1.349       .  A
N108        N109   1.318       .  A
N108       Mn110   2.186   1_564  S
N109        C111   1.349       .  A
Mn110      Cl134   2.543       .  S
C111        C438   1.470       .  S
C112        C338   1.476       .  S
N113        N114   1.321       .  A
N113        N119   1.315       .  A
N113       Mn121   2.200   1_565  S
N114        C122   1.353       .  A
N115        N117   1.316       .  A
N115        N116   1.321       .  A
N115       Mn133   2.208       .  S
N116        C123   1.353       .  A
N117        N118   1.320       .  A
N117       Mn121   2.194       .  S
N118        C123   1.351       .  A
N119        N120   1.319       .  A
N119       Mn133   2.197   1_565  S
N120        C122   1.351       .  A
Mn121      Cl134   2.544       .  S
C122        C449   1.477       .  S
C123        C418   1.473       .  S
N124        N125   1.318       .  A
N124        N130   1.314       .  A
N124       Mn132   2.199       .  S
N125        C135   1.352       .  A
N126        N127   1.323       .  A
N126        N128   1.316       .  A
N126       Mn133   2.213   1_564  S
N127        C136   1.355       .  A
N128        N129   1.318       .  A
N128       Mn132   2.192   1_565  S
N129        C136   1.349       .  A
N130        N131   1.322       .  A
N130       Mn133   2.196   1_554  S
N131        C135   1.354       .  A
Mn132      Cl134   2.535   1_554  S
Mn133      Cl134   2.551       .  S
C135        C349   1.488       .  S
C136        C369   1.476       .  S
C137        C309   1.619       .  S
C137        C458   1.616       .  S
C137        C578   1.608       .  S
C137        C789   1.603       .  S
N138        N139   1.319       .  A
N138        N144   1.313       .  A
N138       Mn167   2.183   1_655  S
N139        C146   1.350       .  A
N140        N142   1.314       .  A
N140        N141   1.318       .  A
N140       Mn156   2.181   1_565  S
N141        C147   1.348       .  A
N142        N143   1.323       .  A
N142       Mn167   2.210   1_665  S
N143        C147   1.355       .  A
N144        N145   1.320       .  A
N144       Mn156   2.200       .  S
N145        C146   1.353       .  A
C146        C469   1.471       .  S
C147        C238   1.470       .  S
N148        N154   1.314       .  A
N148        N149   1.322       .  A
N148       Mn178   2.221   1_665  S
N149        C157   1.358       .  A
N150        N151   1.317       .  A
N150        N152   1.314       .  A
N150       Mn156   2.181       .  S
N151        C158   1.350       .  A
N152        N153   1.319       .  A
N152       Mn178   2.195   1_655  S
N153        C158   1.352       .  A
N154        N155   1.320       .  A
N154       Mn156   2.191   1_565  S
N155        C157   1.351       .  A
Mn156      Cl180   2.540   1_655  S
C157        C278   1.497       .  S
C158        C298   1.474       .  S
N159        N160   1.319       .  A
N159        N165   1.315       .  A
N159       Mn167   2.182   1_565  S
N160        C168   1.349       .  A
N161        N163   1.316       .  A
N161        N162   1.324       .  A
N161       Mn179   2.220       .  S
N162        C169   1.356       .  A
N163        N164   1.319       .  A
N163       Mn167   2.197       .  S
N164        C169   1.350       .  A
N165        N166   1.320       .  A
N165       Mn179   2.205   1_565  S
N166        C168   1.353       .  A
Mn167      Cl180   2.544       .  S
C168        C318   1.469       .  S
C169        C198   1.481       .  S
N170        N171   1.321       .  A
N170        N176   1.316       .  A
N170       Mn178   2.210       .  S
N171        C181   1.353       .  A
N172        N173   1.321       .  A
N172        N174   1.315       .  A
N172       Mn179   2.204   1_565  S
N173        C182   1.353       .  A
N174        N175   1.320       .  A
N174       Mn178   2.202   1_565  S
N175        C182   1.353       .  A
N176        N177   1.324       .  A
N176       Mn179   2.218       .  S
N177        C181   1.357       .  A
Mn178      Cl180   2.542       .  S
Mn179      Cl180   2.547       .  S
C181        C218   1.494       .  S
C182        C249   1.485       .  S
C183        C269   1.619       .  S
C183        C429   1.610       .  S
C183        C549   1.615       .  S
C183        C758   1.613       .  S
C184        C209   1.606       .  S
C184        C358   1.609       .  S
C184        C509   1.610       .  S
C184        C818   1.604       .  S
C185        C289   1.608       .  S
C185        C329   1.609       .  S
C185        C629   1.611       .  S
C185        C718   1.610       .  S
C186        C258   1.615       .  S
C186        C378   1.606       .  S
C186        C538   1.604       .  S
C186        C738   1.619       .  S
C187        C189   1.612       .  S
C187        C409   1.613       .  S
C187        C618   1.620       .  S
C187        C698   1.616       .  S
C188        C229   1.614       .  S
C188        C389   1.603       .  S
C188        C589   1.610       .  S
C188        C669   1.609       .  S
C189        C190   1.456       .  A
C189        C194   1.456       .  A
C190        C191   1.413       .  A
C190       Br202   1.939       .  S
C191        C192   1.394       .  A
C191       Br206   1.940       .  S
C192        C195   1.490       .  S
C192        C193   1.397       .  A
C193        C194   1.418       .  A
C193       Br201   1.943       .  S
C194       Br205   1.926       .  S
C195        C196   1.409       .  A
C195        C200   1.411       .  A
C196        C197   1.406       .  A
C196       Br207   1.931       .  S
C197        C198   1.412       .  A
C197       Br203   1.930       .  S
C198        C199   1.408       .  A
C199        C200   1.410       .  A
C199       Br208   1.924       .  S
C200       Br204   1.927       .  S
C209        C210   1.454       .  A
C209        C214   1.458       .  A
C210        C211   1.413       .  A
C210       Br222   1.934       .  S
C211        C212   1.396       .  A
C211       Br226   1.939       .  S
C212        C215   1.488       .  S
C212        C213   1.395       .  A
C213        C214   1.412       .  A
C213       Br221   1.941       .  S
C214       Br225   1.946       .  S
C215        C216   1.406       .  A
C215        C220   1.407       .  A
C216        C217   1.409       .  A
C216       Br227   1.934       .  S
C217        C218   1.419       .  A
C217       Br223   1.930       .  S
C218        C219   1.415       .  A
C219        C220   1.410       .  A
C219       Br228   1.923       .  S
C220       Br224   1.930       .  S
C229        C230   1.454       .  A
C229        C234   1.460       .  A
C230        C231   1.416       .  A
C230       Br242   1.922       .  S
C231        C232   1.394       .  A
C231       Br246   1.944       .  S
C232        C235   1.485       .  S
C232        C233   1.392       .  A
C233        C234   1.416       .  A
C233       Br241   1.946       .  S
C234       Br245   1.936       .  S
C235        C236   1.408       .  A
C235        C240   1.410       .  A
C236        C237   1.404       .  A
C236       Br247   1.925       .  S
C237        C238   1.408       .  A
C237       Br243   1.928       .  S
C238        C239   1.405       .  A
C239        C240   1.406       .  A
C239       Br248   1.921       .  S
C240       Br244   1.930       .  S
C249        C250   1.414       .  A
C249        C254   1.419       .  A
C250        C251   1.405       .  A
C250       Br262   1.934       .  S
C251        C252   1.407       .  A
C251       Br266   1.925       .  S
C252        C255   1.487       .  S
C252        C253   1.407       .  A
C253        C254   1.409       .  A
C253       Br261   1.933       .  S
C254       Br265   1.932       .  S
C255        C256   1.394       .  A
C255        C260   1.392       .  A
C256        C257   1.416       .  A
C256       Br267   1.943       .  S
C257        C258   1.460       .  A
C257       Br263   1.937       .  S
C258        C259   1.458       .  A
C259        C260   1.413       .  A
C259       Br268   1.930       .  S
C260       Br264   1.944       .  S
C269        C270   1.456       .  A
C269        C274   1.460       .  A
C270        C271   1.419       .  A
C270       Br282   1.930       .  S
C271        C272   1.398       .  A
C271       Br286   1.940       .  S
C272        C275   1.500       .  S
C272        C273   1.397       .  A
C273        C274   1.416       .  A
C273       Br281   1.942       .  S
C274       Br285   1.946       .  S
C275        C276   1.409       .  A
C275        C280   1.411       .  A
C276        C277   1.410       .  A
C276       Br287   1.932       .  S
C277        C278   1.419       .  A
C277       Br283   1.933       .  S
C278        C279   1.421       .  A
C279        C280   1.413       .  A
C279       Br288   1.937       .  S
C280       Br284   1.929       .  S
C289        C290   1.456       .  A
C289        C294   1.459       .  A
C290        C291   1.413       .  A
C290       Br302   1.928       .  S
C291        C292   1.393       .  A
C291       Br306   1.942       .  S
C292        C295   1.480       .  S
C292        C293   1.392       .  A
C293        C294   1.409       .  A
C293       Br301   1.943       .  S
C294       Br305   1.947       .  S
C295        C296   1.407       .  A
C295        C300   1.407       .  A
C296        C297   1.403       .  A
C296       Br307   1.934       .  S
C297        C298   1.417       .  A
C297       Br303   1.936       .  S
C298        C299   1.412       .  A
C299        C300   1.405       .  A
C299       Br308   1.934       .  S
C300       Br304   1.926       .  S
C309        C310   1.464       .  A
C309        C314   1.454       .  A
C310        C311   1.413       .  A
C310       Br322   1.943       .  S
C311        C312   1.392       .  A
C311       Br326   1.948       .  S
C312        C315   1.488       .  S
C312        C313   1.398       .  A
C313        C314   1.417       .  A
C313       Br321   1.939       .  S
C314       Br325   1.936       .  S
C315        C316   1.413       .  A
C315        C320   1.410       .  A
C316        C317   1.403       .  A
C316       Br327   1.923       .  S
C317        C318   1.405       .  A
C317       Br323   1.934       .  S
C318        C319   1.407       .  A
C319        C320   1.407       .  A
C319       Br328   1.922       .  S
C320       Br324   1.931       .  S
C329        C330   1.454       .  A
C329        C334   1.458       .  A
C330        C331   1.416       .  A
C330       Br342   1.930       .  S
C331        C332   1.397       .  A
C331       Br346   1.940       .  S
C332        C335   1.490       .  S
C332        C333   1.396       .  A
C333        C334   1.412       .  A
C333       Br341   1.942       .  S
C334       Br345   1.948       .  S
C335        C336   1.410       .  A
C335        C340   1.411       .  A
C336        C337   1.405       .  A
C336       Br347   1.930       .  S
C337        C338   1.412       .  A
C337       Br343   1.935       .  S
C338        C339   1.411       .  A
C339        C340   1.409       .  A
C339       Br348   1.933       .  S
C340       Br344   1.927       .  S
C349        C350   1.418       .  A
C349        C354   1.416       .  A
C350        C351   1.406       .  A
C350       Br362   1.935       .  S
C351        C352   1.407       .  A
C351       Br366   1.932       .  S
C352        C355   1.489       .  S
C352        C353   1.408       .  A
C353        C354   1.409       .  A
C353       Br361   1.930       .  S
C354       Br365   1.929       .  S
C355        C356   1.392       .  A
C355        C360   1.397       .  A
C356        C357   1.411       .  A
C356       Br367   1.942       .  S
C357        C358   1.454       .  A
C357       Br363   1.924       .  S
C358        C359   1.459       .  A
C359        C360   1.416       .  A
C359       Br368   1.943       .  S
C360       Br364   1.942       .  S
C369        C370   1.410       .  A
C369        C374   1.412       .  A
C370        C371   1.406       .  A
C370       Br382   1.932       .  S
C371        C372   1.409       .  A
C371       Br386   1.926       .  S
C372        C375   1.485       .  S
C372        C373   1.409       .  A
C373        C374   1.407       .  A
C373       Br381   1.932       .  S
C374       Br385   1.930       .  S
C375        C376   1.394       .  A
C375        C380   1.394       .  A
C376        C377   1.415       .  A
C376       Br387   1.947       .  S
C377        C378   1.464       .  A
C377       Br383   1.947       .  S
C378        C379   1.453       .  A
C379        C380   1.412       .  A
C379       Br388   1.934       .  S
C380       Br384   1.940       .  S
C389        C390   1.453       .  A
C389        C394   1.455       .  A
C390        C391   1.413       .  A
C390       Br402   1.929       .  S
C391        C392   1.395       .  A
C391       Br406   1.942       .  S
C392        C395   1.487       .  S
C392        C393   1.399       .  A
C393        C394   1.413       .  A
C393       Br401   1.945       .  S
C394       Br405   1.943       .  S
C395        C396   1.406       .  A
C395        C400   1.405       .  A
C396        C397   1.407       .  A
C396       Br407   1.936       .  S
C397        C398   1.422       .  A
C397       Br403   1.935       .  S
C398        C399   1.424       .  A
C399        C400   1.407       .  A
C399       Br408   1.934       .  S
C400       Br404   1.931       .  S
C409        C410   1.460       .  A
C409        C414   1.454       .  A
C410        C411   1.415       .  A
C410       Br422   1.946       .  S
C411        C412   1.395       .  A
C411       Br426   1.943       .  S
C412        C415   1.490       .  S
C412        C413   1.397       .  A
C413        C414   1.417       .  A
C413       Br421   1.943       .  S
C414       Br425   1.930       .  S
C415        C416   1.410       .  A
C415        C420   1.412       .  A
C416        C417   1.405       .  A
C416       Br427   1.930       .  S
C417        C418   1.409       .  A
C417       Br423   1.932       .  S
C418        C419   1.408       .  A
C419        C420   1.409       .  A
C419       Br428   1.929       .  S
C420       Br424   1.927       .  S
C429        C430   1.454       .  A
C429        C434   1.462       .  A
C430        C431   1.414       .  A
C430       Br442   1.928       .  S
C431        C432   1.394       .  A
C431       Br446   1.942       .  S
C432        C435   1.485       .  S
C432        C433   1.395       .  A
C433        C434   1.414       .  A
C433       Br441   1.945       .  S
C434       Br445   1.951       .  S
C435        C436   1.410       .  A
C435        C440   1.410       .  A
C436        C437   1.406       .  A
C436       Br447   1.932       .  S
C437        C438   1.411       .  A
C437       Br443   1.931       .  S
C438        C439   1.408       .  A
C439        C440   1.406       .  A
C439       Br448   1.932       .  S
C440       Br444   1.926       .  S
C449        C450   1.411       .  A
C449        C454   1.411       .  A
C450        C451   1.406       .  A
C450       Br462   1.933       .  S
C451        C452   1.413       .  A
C451       Br466   1.933       .  S
C452        C455   1.493       .  S
C452        C453   1.414       .  A
C453        C454   1.410       .  A
C453       Br461   1.929       .  S
C454       Br465   1.934       .  S
C455        C456   1.396       .  A
C455        C460   1.396       .  A
C456        C457   1.412       .  A
C456       Br467   1.943       .  S
C457        C458   1.453       .  A
C457       Br463   1.924       .  S
C458        C459   1.458       .  A
C459        C460   1.416       .  A
C459       Br468   1.925       .  S
C460       Br464   1.940       .  S
C469        C470   1.410       .  A
C469        C474   1.410       .  A
C470        C471   1.403       .  A
C470       Br482   1.928       .  S
C471        C472   1.409       .  A
C471       Br486   1.929       .  S
C472        C475   1.482       .  S
C472        C473   1.409       .  A
C473        C474   1.406       .  A
C473       Br481   1.930       .  S
C474       Br485   1.930       .  S
C475        C476   1.394       .  A
C475        C480   1.395       .  A
C476        C477   1.414       .  A
C476       Br487   1.945       .  S
C477        C478   1.459       .  A
C477       Br483   1.943       .  S
C478        C479   1.453       .  A
C479        C480   1.411       .  A
C479       Br488   1.933       .  S
C480       Br484   1.943       .  S
C489        C490   1.430       .  A
C489        C494   1.429       .  A
C490        C491   1.406       .  A
C490       Br502   1.936       .  S
C491        C492   1.402       .  A
C491       Br506   1.939       .  S
C492        C495   1.480       .  S
C492        C493   1.402       .  A
C493        C494   1.409       .  A
C493       Br501   1.934       .  S
C494       Br505   1.937       .  S
C495        C496   1.392       .  A
C495        C500   1.397       .  A
C496        C497   1.405       .  A
C496       Br507   1.945       .  S
C497        C498   1.456       .  A
C497       Br503   1.942       .  S
C498        C499   1.452       .  A
C499        C500   1.414       .  A
C499       Br508   1.933       .  S
C500       Br504   1.937       .  S
C509        C510   1.456       .  A
C509        C514   1.461       .  A
C510        C511   1.412       .  A
C510       Br522   1.931       .  S
C511        C512   1.393       .  A
C511       Br526   1.945       .  S
C512        C515   1.487       .  S
C512        C513   1.396       .  A
C513        C514   1.417       .  A
C513       Br521   1.945       .  S
C514       Br525   1.949       .  S
C515        C516   1.411       .  A
C515        C520   1.410       .  A
C516        C517   1.407       .  A
C516       Br527   1.928       .  S
C517        C518   1.408       .  A
C517       Br523   1.931       .  S
C518        C519   1.410       .  A
C519        C520   1.405       .  A
C519       Br528   1.931       .  S
C520       Br524   1.932       .  S
C529        C530   1.411       .  A
C529        C534   1.408       .  A
C530        C531   1.404       .  A
C530       Br542   1.933       .  S
C531        C532   1.410       .  A
C531       Br546   1.933       .  S
C532        C535   1.481       .  S
C532        C533   1.408       .  A
C533        C534   1.405       .  A
C533       Br541   1.927       .  S
C534       Br545   1.931       .  S
C535        C536   1.391       .  A
C535        C540   1.396       .  A
C536        C537   1.407       .  A
C536       Br547   1.941       .  S
C537        C538   1.456       .  A
C537       Br543   1.937       .  S
C538        C539   1.452       .  A
C539        C540   1.413       .  A
C539       Br548   1.927       .  S
C540       Br544   1.942       .  S
C549        C550   1.463       .  A
C549        C554   1.456       .  A
C550        C551   1.416       .  A
C550       Br562   1.942       .  S
C551        C552   1.394       .  A
C551       Br566   1.947       .  S
C552        C555   1.492       .  S
C552        C553   1.396       .  A
C553        C554   1.416       .  A
C553       Br561   1.940       .  S
C554       Br565   1.934       .  S
C555        C556   1.410       .  A
C555        C560   1.411       .  A
C556        C557   1.410       .  A
C556       Br567   1.932       .  S
C557        C558   1.414       .  A
C557       Br563   1.929       .  S
C558        C559   1.410       .  A
C559        C560   1.408       .  A
C559       Br568   1.932       .  S
C560       Br564   1.928       .  S
C569        C570   1.413       .  A
C569        C574   1.409       .  A
C570        C571   1.414       .  A
C570       Br582   1.928       .  S
C571        C572   1.412       .  A
C571       Br586   1.929       .  S
C572        C575   1.499       .  S
C572        C573   1.410       .  A
C573        C574   1.411       .  A
C573       Br581   1.929       .  S
C574       Br585   1.925       .  S
C575        C576   1.399       .  A
C575        C580   1.396       .  A
C576        C577   1.417       .  A
C576       Br587   1.939       .  S
C577        C578   1.458       .  A
C577       Br583   1.943       .  S
C578        C579   1.454       .  A
C579        C580   1.416       .  A
C579       Br588   1.927       .  S
C580       Br584   1.937       .  S
C589        C590   1.455       .  A
C589        C594   1.450       .  A
C590        C591   1.408       .  A
C590       Br602   1.940       .  S
C591        C592   1.393       .  A
C591       Br606   1.940       .  S
C592        C595   1.492       .  S
C592        C593   1.403       .  A
C593        C594   1.420       .  A
C593       Br601   1.936       .  S
C594       Br605   1.931       .  S
C595        C596   1.412       .  A
C595        C600   1.411       .  A
C596        C597   1.410       .  A
C596       Br607   1.928       .  S
C597        C598   1.408       .  A
C597       Br603   1.927       .  S
C598        C599   1.408       .  A
C599        C600   1.405       .  A
C599       Br608   1.928       .  S
C600       Br604   1.924       .  S
C609        C610   1.417       .  A
C609        C614   1.411       .  A
C610        C611   1.412       .  A
C610       Br622   1.930       .  S
C611        C612   1.410       .  A
C611       Br626   1.930       .  S
C612        C615   1.493       .  S
C612        C613   1.407       .  A
C613        C614   1.406       .  A
C613       Br621   1.927       .  S
C614       Br625   1.920       .  S
C615        C616   1.392       .  A
C615        C620   1.394       .  A
C616        C617   1.413       .  A
C616       Br627   1.941       .  S
C617        C618   1.455       .  A
C617       Br623   1.928       .  S
C618        C619   1.466       .  A
C619        C620   1.420       .  A
C619       Br628   1.941       .  S
C620       Br624   1.946       .  S
C629        C630   1.453       .  A
C629        C634   1.460       .  A
C630        C631   1.415       .  A
C630       Br642   1.928       .  S
C631        C632   1.395       .  A
C631       Br646   1.939       .  S
C632        C635   1.493       .  S
C632        C633   1.394       .  A
C633        C634   1.415       .  A
C633       Br641   1.942       .  S
C634       Br645   1.938       .  S
C635        C636   1.408       .  A
C635        C640   1.408       .  A
C636        C637   1.412       .  A
C636       Br647   1.930       .  S
C637        C638   1.418       .  A
C637       Br643   1.932       .  S
C638        C639   1.417       .  A
C639        C640   1.410       .  A
C639       Br648   1.932       .  S
C640       Br644   1.933       .  S
C649        C650   1.457       .  A
C649        C654   1.458       .  A
C650        C651   1.414       .  A
C650       Br662   1.931       .  S
C651        C652   1.394       .  A
C651       Br666   1.942       .  S
C652        C655   1.480       .  S
C652        C653   1.393       .  A
C653        C654   1.409       .  A
C653       Br661   1.947       .  S
C654       Br665   1.941       .  S
C655        C656   1.410       .  A
C655        C660   1.409       .  A
C656        C657   1.405       .  A
C656       Br667   1.931       .  S
C657        C658   1.406       .  A
C657       Br663   1.921       .  S
C658        C659   1.407       .  A
C659        C660   1.400       .  A
C659       Br668   1.931       .  S
C660       Br664   1.924       .  S
C669        C670   1.453       .  A
C669        C674   1.458       .  A
C670        C671   1.407       .  A
C670       Br682   1.930       .  S
C671        C672   1.393       .  A
C671       Br686   1.940       .  S
C672        C675   1.483       .  S
C672        C673   1.394       .  A
C673        C674   1.416       .  A
C673       Br681   1.941       .  S
C674       Br685   1.925       .  S
C675        C676   1.406       .  A
C675        C680   1.405       .  A
C676        C677   1.408       .  A
C676       Br687   1.928       .  S
C677        C678   1.418       .  A
C677       Br683   1.933       .  S
C678        C679   1.421       .  A
C679        C680   1.406       .  A
C679       Br688   1.932       .  S
C680       Br684   1.936       .  S
C689        C690   1.402       .  A
C689        C694   1.407       .  A
C690        C691   1.404       .  A
C690       Br702   1.930       .  S
C691        C692   1.415       .  A
C691       Br706   1.927       .  S
C692        C695   1.493       .  S
C692        C693   1.415       .  A
C693        C694   1.408       .  A
C693       Br701   1.931       .  S
C694       Br705   1.932       .  S
C695        C696   1.397       .  A
C695        C700   1.396       .  A
C696        C697   1.418       .  A
C696       Br707   1.951       .  S
C697        C698   1.465       .  A
C697       Br703   1.946       .  S
C698        C699   1.455       .  A
C699        C700   1.416       .  A
C699       Br708   1.932       .  S
C700       Br704   1.943       .  S
C709        C710   1.413       .  A
C709        C714   1.405       .  A
C710        C711   1.410       .  A
C710       Br722   1.931       .  S
C711        C712   1.412       .  A
C711       Br726   1.930       .  S
C712        C715   1.489       .  S
C712        C713   1.408       .  A
C713        C714   1.404       .  A
C713       Br721   1.926       .  S
C714       Br725   1.919       .  S
C715        C716   1.394       .  A
C715        C720   1.396       .  A
C716        C717   1.411       .  A
C716       Br727   1.943       .  S
C717        C718   1.458       .  A
C717       Br723   1.943       .  S
C718        C719   1.455       .  A
C719        C720   1.417       .  A
C719       Br728   1.932       .  S
C720       Br724   1.939       .  S
C729        C730   1.410       .  A
C729        C734   1.414       .  A
C730        C731   1.411       .  A
C730       Br742   1.929       .  S
C731        C732   1.412       .  A
C731       Br746   1.927       .  S
C732        C735   1.501       .  S
C732        C733   1.413       .  A
C733        C734   1.414       .  A
C733       Br741   1.932       .  S
C734       Br745   1.930       .  S
C735        C736   1.400       .  A
C735        C740   1.398       .  A
C736        C737   1.419       .  A
C736       Br747   1.938       .  S
C737        C738   1.452       .  A
C737       Br743   1.931       .  S
C738        C739   1.461       .  A
C739        C740   1.417       .  A
C739       Br748   1.945       .  S
C740       Br744   1.942       .  S
C749        C750   1.410       .  A
C749        C754   1.409       .  A
C750        C751   1.404       .  A
C750       Br762   1.936       .  S
C751        C752   1.410       .  A
C751       Br766   1.927       .  S
C752        C755   1.483       .  S
C752        C753   1.409       .  A
C753        C754   1.404       .  A
C753       Br761   1.930       .  S
C754       Br765   1.932       .  S
C755        C756   1.391       .  A
C755        C760   1.393       .  A
C756        C757   1.412       .  A
C756       Br767   1.944       .  S
C757        C758   1.457       .  A
C757       Br763   1.928       .  S
C758        C759   1.462       .  A
C759        C760   1.418       .  A
C759       Br768   1.935       .  S
C760       Br764   1.949       .  S
C769        C770   1.454       .  A
C769        C774   1.453       .  A
C770        C771   1.413       .  A
C770       Br782   1.924       .  S
C771        C772   1.396       .  A
C771       Br786   1.939       .  S
C772        C775   1.485       .  S
C772        C773   1.394       .  A
C773        C774   1.406       .  A
C773       Br781   1.941       .  S
C774       Br785   1.929       .  S
C775        C776   1.404       .  A
C775        C780   1.409       .  A
C776        C777   1.404       .  A
C776       Br787   1.932       .  S
C777        C778   1.415       .  A
C777       Br783   1.917       .  S
C778        C779   1.420       .  A
C779        C780   1.412       .  A
C779       Br788   1.931       .  S
C780       Br784   1.934       .  S
C789        C790   1.460       .  A
C789        C794   1.453       .  A
C790        C791   1.413       .  A
C790       Br802   1.946       .  S
C791        C792   1.395       .  A
C791       Br806   1.951       .  S
C792        C795   1.485       .  S
C792        C793   1.396       .  A
C793        C794   1.415       .  A
C793       Br801   1.941       .  S
C794       Br805   1.938       .  S
C795        C796   1.407       .  A
C795        C800   1.409       .  A
C796        C797   1.405       .  A
C796       Br807   1.932       .  S
C797        C798   1.418       .  A
C797       Br803   1.935       .  S
C798        C799   1.422       .  A
C799        C800   1.405       .  A
C799       Br808   1.940       .  S
C800       Br804   1.933       .  S
C809        C810   1.423       .  A
C809        C814   1.420       .  A
C810        C811   1.406       .  A
C810       Br822   1.939       .  S
C811        C812   1.406       .  A
C811       Br826   1.935       .  S
C812        C815   1.479       .  S
C812        C813   1.403       .  A
C813        C814   1.404       .  A
C813       Br821   1.932       .  S
C814       Br825   1.935       .  S
C815        C816   1.392       .  A
C815        C820   1.393       .  A
C816        C817   1.407       .  A
C816       Br827   1.940       .  S
C817        C818   1.460       .  A
C817       Br823   1.943       .  S
C818        C819   1.453       .  A
C819        C820   1.409       .  A
C819       Br828   1.928       .  S
C820       Br824   1.941       .  S
