geometry optimzed in LAMMPS
_audit_creation_date              2020-11-30 
_audit_creation_method            'lammps2cif' 
_symmetry_space_group_name_H-M    'P1' 
_symmetry_Int_Tables_number       1 
_symmetry_cell_setting            triclinic 
loop_ 
_symmetry_equiv_pos_as_xyz 
  x,y,z 
_cell_length_a                    29.61481003 
_cell_length_b                    30.89956899291466 
_cell_length_c                    25.314036262523164 
_cell_angle_alpha                 89.95325086735343 
_cell_angle_beta                  89.44736354247179 
_cell_angle_gamma                 118.62841834465053 
loop_ 
_atom_site_label 
_atom_site_type_symbol 
_atom_site_fract_x 
_atom_site_fract_y 
_atom_site_fract_z 
_atom_site_charge 
C1          C  0.40978938  0.33282487  0.99724272    -0.02100
C2          C  0.48400379  0.36952349  0.50356260    -0.02100
C3          C  0.01899482  0.43661737  0.50670191    -0.02100
C4          C  0.47916842  0.96987078  0.00181234    -0.02100
C5          C  0.40714016  0.43373758  0.50432646    -0.02100
C6          C  0.37057662  0.36712427  0.49524666    -0.02100
Fe7        Fe  0.02844800  0.18584135  0.25795314     1.65800
Fe8        Fe  0.14484731  0.18868579  0.24230400     1.73200
Fe9        Fe  0.13677309  0.29448783  0.24261075     1.54400
O10         O  0.09102035  0.28950393  0.17929991    -0.81300
O11         O  0.20156803  0.23950568  0.29446189    -0.79600
O12         O  0.01404923  0.22973071  0.20489212    -0.83800
O13         O  0.03097609  0.22912326  0.32200305    -0.78700
O14         O  0.19099317  0.30048532  0.18788578    -0.80400
O15         O  0.11217011  0.14419195  0.30745831    -0.83200
C16         C  0.05281543  0.27588241  0.32603832     0.97600
C17         C  0.04281270  0.26365963  0.17258627     1.05000
O18         O  0.10321530  0.22252977  0.24815489    -1.12200
O19         O  0.09126241  0.13438549  0.19309262    -0.74600
O20         O  0.01899295  0.14056373  0.19525064    -0.78100
O21         O  0.08814103  0.30360293  0.29437729    -0.78800
C22         C  0.04592434  0.12211853  0.17720506     0.96500
O23         O  0.03266405  0.13474944  0.30891923    -0.76700
O24         O  0.18071685  0.22605336  0.17290669    -0.81900
C25         C  0.20714215  0.27757970  0.32019992     0.99100
C26         C  0.19754024  0.27053939  0.15902528     1.05000
O27         O  0.18363329  0.30128666  0.30661681    -0.77600
C28         C  0.06609148  0.12266493  0.32422802     1.03300
Fe29       Fe  0.35916476  0.11148385  0.25039010     1.65800
Fe30       Fe  0.24422546  0.00546144  0.25291861     1.73200
Fe31       Fe  0.24590956  0.11627353  0.25511914     1.54400
O32         O  0.30072306  0.17151894  0.30123491    -0.81300
O33         O  0.20275864  0.00539744  0.18914378    -0.79600
O34         O  0.36799041  0.15852297  0.31192337    -0.83800
O35         O  0.36345114  0.16574413  0.19740237    -0.78700
O36         O  0.20317062  0.07820834  0.32113620    -0.80400
O37         O  0.29551023  0.99700586  0.20253515    -0.83200
C38         C  0.33238672  0.17865797  0.17692219     0.97600
C39         C  0.34467296  0.18328601  0.32037439     1.05000
O40         O  0.28332857  0.07803675  0.25328536    -1.12200
O41         O  0.28270389  0.99938904  0.31751821    -0.74600
O42         O  0.36328074  0.05968848  0.30342422    -0.78100
O43         O  0.28486778  0.15846892  0.18959393    -0.78800
C44         C  0.33058257  0.01992664  0.32701105     0.96500
O45         O  0.36077773  0.07132094  0.18670402    -0.76700
O46         O  0.18506616  0.00119947  0.30178517    -0.81900
C47         C  0.17549134  0.02669166  0.18447679     0.99100
C48         C  0.17579643  0.03166409  0.32696267     1.05000
O49         O  0.18545298  0.06616729  0.20901035    -0.77600
C50         C  0.33661874  0.02567378  0.17755867     1.03300
C51         C  0.29272505  0.29545018  0.04716723    -0.11900
C52         C  0.31716519  0.34587146  0.03609058     0.05100
C53         C  0.27969688  0.36361399  0.05446009    -0.07200
C54         C  0.24045384  0.33708983  0.09243998    -0.07900
C55         C  0.22838381  0.29049712  0.10936941    -0.02500
C56         C  0.25011362  0.26742606  0.08027877     0.04300
N57         N  0.22850385  0.21538396  0.08174067     0.66800
H58         H  0.31027404  0.27765248  0.03265443     0.15700
H59         H  0.21893231  0.35403874  0.10937802     0.15400
N60         N  0.27357676  0.40498952  0.03821169     0.74500
O61         O  0.19573938  0.19012086  0.04762540    -0.38900
O62         O  0.25107821  0.19652589  0.10694124    -0.38900
O63         O  0.23560155  0.39572972  0.00904050    -0.39600
O64         O  0.28219149  0.43758450  0.07234845    -0.39600
C65         C  0.28505928  0.28629367  0.37067537    -0.11900
C66         C  0.24420430  0.29678510  0.36627029     0.05100
C67         C  0.24689010  0.33398079  0.40039247    -0.07200
C68         C  0.28952930  0.35851591  0.43457600    -0.07900
C69         C  0.33288141  0.35051203  0.43844923    -0.02500
C70         C  0.33234639  0.32511085  0.38911877     0.04300
N71         N  0.35645888  0.35421419  0.34250687     0.66800
H72         H  0.28696923  0.26135961  0.34176173     0.15700
H73         H  0.29010092  0.38672989  0.45575835     0.15400
N74         N  0.20592001  0.34581490  0.40315739     0.74500
O75         O  0.37866203  0.33939753  0.31045108    -0.38900
O76         O  0.33728127  0.37931728  0.32305301    -0.38900
O77         O  0.16413917  0.31583134  0.42529770    -0.39600
O78         O  0.21422645  0.38885491  0.39208770    -0.39600
C79         C  0.34816464  0.47263540  0.46148031    -0.11900
C80         C  0.38406245  0.45373279  0.45471164     0.05100
C81         C  0.39505294  0.95268604  0.39719049    -0.07200
C82         C  0.37784136  0.97429192  0.35715369    -0.07900
C83         C  0.34768251  0.99667109  0.36867319    -0.02500
C84         C  0.33001451  0.49208250  0.42200781     0.04300
N85         N  0.29922064  0.51438665  0.43707199     0.66800
H86         H  0.33276616  0.47541590  0.49771779     0.15700
H87         H  0.38944767  0.97480412  0.31634622     0.15400
N88         N  0.43037382  0.93603623  0.38140662     0.74500
O89         O  0.25163475  0.48751579  0.44467309    -0.38900
O90         O  0.31764066  0.06077809  0.43876123    -0.38900
O91         O  0.43614826  0.40651531  0.41387147    -0.39600
O92         O  0.45058841  0.94463660  0.33578824    -0.39600
C93         C  0.35538691  0.45905090  0.14997455    -0.11900
C94         C  0.35781273  0.00435386  0.13790203     0.05100
C95         C  0.38521466  0.02899604  0.09264537    -0.07200
C96         C  0.39960548  0.00399136  0.05536308    -0.07900
C97         C  0.38792329  0.45228540  0.05857915    -0.02500
C98         C  0.36977460  0.43307351  0.11348794     0.04300
N99         N  0.36738595  0.39100014  0.13992245     0.66800
H100        H  0.34104078  0.44304228  0.18882128     0.15700
H101        H  0.41951003  0.02571213  0.02161593     0.15400
N102        N  0.39686610  0.07883830  0.08183838     0.74500
O103        O  0.39588444  0.39998154  0.17954897    -0.38900
O104        O  0.32370557  0.35465536  0.14672012    -0.38900
O105        O  0.42653945  0.11308861  0.11181910    -0.39600
O106        O  0.38500355  0.08967699  0.03793332    -0.39600
C107        C  0.00158412  0.03527376  0.14770401    -0.11900
C108        C  0.02344112  0.08487277  0.13554076     0.05100
C109        C  0.02812603  0.09835684  0.08306473    -0.07200
C110        C  0.01422053  0.06259681  0.04429926    -0.07900
C111        C  0.99352256  0.01011256  0.05226198    -0.02500
C112        C  0.98865521  0.99883636  0.10796707     0.04300
N113        N  0.47811944  0.95186035  0.12492630     0.66800
H114        H  0.99790406  0.02505117  0.18912206     0.15700
H115        H  0.02489066  0.08062358  0.00828827     0.15400
N116        N  0.05001441  0.14901337  0.06742758     0.74500
O117        O  0.49459943  0.94847884  0.16974552    -0.38900
O118        O  0.45714487  0.41381925  0.09559790    -0.38900
O119        O  0.09447972  0.16999042  0.04697395    -0.39600
O120        O  0.01990121  0.16595730  0.05745388    -0.39600
C121        C  0.99793297  0.04689664  0.36750589    -0.11900
C122        C  0.04994590  0.08174581  0.36330626     0.05100
C123        C  0.08084783  0.08345143  0.40584696    -0.07200
C124        C  0.05811278  0.04769572  0.44671771    -0.07900
C125        C  0.00362202  0.01244652  0.45177212    -0.02500
C126        C  0.47593637  0.03694919  0.42225991     0.04300
N127        N  0.46684110  0.07514376  0.44542931     0.66800
H128        H  0.46631506  0.05387331  0.34257017     0.15700
H129        H  0.08324342  0.05372613  0.47781357     0.15400
N130        N  0.12895408  0.12667204  0.41530597     0.74500
O131        O  0.42231344  0.07035380  0.44592023    -0.38900
O132        O  0.50339574  0.61732257  0.44364072    -0.38900
O133        O  0.12905080  0.16250143  0.43933388    -0.39600
O134        O  0.17070209  0.12560544  0.40919148    -0.39600
C135        C  0.11132944  0.45568317  0.13676953    -0.11900
C136        C  0.13113865  0.00454926  0.14812385     0.05100
C137        C  0.11799074  0.03212257  0.11525931    -0.07200
C138        C  0.08217611  0.00814125  0.07491452    -0.07900
C139        C  0.05982310  0.45880131  0.05981620    -0.02500
C140        C  0.08627152  0.43603000  0.08834223     0.04300
N141        N  0.11016838  0.41028034  0.06401372     0.66800
H142        H  0.12449831  0.43467143  0.16033309     0.15700
H143        H  0.07988208  0.03500278  0.04841908     0.15400
N144        N  0.14818997  0.08483268  0.11509669     0.74500
O145        O  0.14527540  0.43409606  0.03121792    -0.38900
O146        O  0.11773047  0.38094595  0.09273237    -0.38900
O147        O  0.19654508  0.10389911  0.11434124    -0.39600
O148        O  0.12825284  0.11106411  0.10191676    -0.39600
C149        C  0.04985512  0.45247553  0.40434576    -0.11900
C150        C  0.06476553  0.46115673  0.45898522     0.05100
C151        C  0.12233549  0.00050674  0.46434589    -0.07200
C152        C  0.15306179  0.02235958  0.41936149    -0.07900
C153        C  0.13568169  0.01187416  0.36906510    -0.02500
C154        C  0.08307985  0.47458479  0.36002857     0.04300
N155        N  0.06392217  0.45963961  0.30792446     0.66800
H156        H  0.01395689  0.42298688  0.39419293     0.15700
H157        H  0.19370860  0.04832619  0.42428911     0.15400
N158        N  0.15329840  0.02513981  0.50925686     0.74500
O159        O  0.05525187  0.41799889  0.29112955    -0.38900
O160        O  0.05212273  0.48651290  0.28005715    -0.38900
O161        O  0.18848915  0.01524215  0.52158733    -0.39600
O162        O  0.16490209  0.06999120  0.51402167    -0.39600
C163        C  0.06368880  0.35111281  0.37530544    -0.11900
C164        C  0.03751281  0.29998956  0.36865741     0.05100
C165        C  0.00051894  0.27334732  0.40673625    -0.07200
C166        C  0.98648607  0.29896015  0.44342647    -0.07900
C167        C  0.00927771  0.35014957  0.45234122    -0.02500
C168        C  0.05949351  0.37128928  0.42433838     0.04300
N169        N  0.10871539  0.39429963  0.44960545     0.66800
H170        H  0.09752268  0.37230694  0.35086373     0.15700
H171        H  0.46171354  0.28112798  0.47389385     0.15400
N172        N  0.48551087  0.22377638  0.41427862     0.74500
O173        O  0.14476088  0.42980789  0.42533415    -0.38900
O174        O  0.12199686  0.36583985  0.47208581    -0.38900
O175        O  0.00621455  0.20443110  0.43359249    -0.39600
O176        O  0.44157577  0.19185363  0.39938190    -0.39600
C177        C  0.03095022  0.31876811  0.04464789    -0.11900
C178        C  0.00081522  0.34330104  0.05555074     0.05100
C179        C  0.98359887  0.33163068  0.11149917    -0.07200
C180        C  0.98271635  0.29109471  0.13899706    -0.07900
C181        C  0.01939881  0.27698992  0.12794431    -0.02500
C182        C  0.04158067  0.28856235  0.07794268     0.04300
N183        N  0.07851573  0.27390382  0.06035273     0.66800
H184        H  0.05403886  0.32691940  0.01100922     0.15700
H185        H  0.96613011  0.28279862  0.17853644     0.15400
N186        N  0.48506060  0.36162714  0.14925535     0.74500
O187        O  0.07410031  0.25604627  0.01473084    -0.38900
O188        O  0.12204678  0.29239470  0.08162337    -0.38900
O189        O  0.44446568  0.35175450  0.17445781    -0.39600
O190        O  0.52471907  0.37747286  0.17731088    -0.39600
C191        C  0.33344624  0.21251001  0.40336467    -0.11900
C192        C  0.36433977  0.22293730  0.36007725     0.05100
C193        C  0.40500308  0.27121959  0.35377478    -0.07200
C194        C  0.41450810  0.30641946  0.39488200    -0.07900
C195        C  0.38907406  0.29477028  0.44614536    -0.02500
C196        C  0.34220867  0.24562153  0.44400188     0.04300
N197        N  0.29746778  0.22595634  0.47709196     0.66800
H198        H  0.29915609  0.17651396  0.40550196     0.15700
H199        H  0.44546874  0.34240414  0.38669227     0.15400
N200        N  0.43644228  0.28580235  0.30627214     0.74500
O201        O  0.28725581  0.18868271  0.50545060    -0.38900
O202        O  0.25996063  0.23155863  0.46244678    -0.38900
O203        O  0.46355767  0.33077749  0.29434427    -0.39600
O204        O  0.43876843  0.25407394  0.27668720    -0.39600
C205        C  0.36927384  0.20569454  0.08881848    -0.11900
C206        C  0.35231891  0.21680465  0.13419551     0.05100
C207        C  0.35573915  0.26331625  0.13784343    -0.07200
C208        C  0.37719135  0.29801923  0.09509229    -0.07900
C209        C  0.39234323  0.28848954  0.04486267    -0.02500
C210        C  0.38899745  0.23798353  0.04536565     0.04300
N211        N  0.40588717  0.21430544  0.00700470     0.66800
H212        H  0.36741565  0.16970219  0.08696324     0.15700
H213        H  0.38203619  0.33363674  0.09961944     0.15400
N214        N  0.33923217  0.27593311  0.18590288     0.77500
O215        O  0.44358229  0.21023677  0.51650618    -0.38900
O216        O  0.36877584  0.17671643  0.48249120    -0.38900
O217        O  0.29270345  0.26533653  0.19099964    -0.39600
O218        O  0.36424928  0.27986711  0.22718304    -0.39600
C219        C  0.41063724  0.33353776  0.49779944    -0.02100
C220        C  0.48346425  0.36904073  0.00272686    -0.02100
C221        C  0.01998390  0.43945976  0.00715317    -0.02100
C222        C  0.47911676  0.97181955  0.50205240    -0.02100
C223        C  0.40598733  0.43291412  0.00300443    -0.02100
C224        C  0.36961959  0.36635237  0.99424911    -0.02100
Fe225      Fe  0.02420895  0.18463928  0.75930547     1.65800
Fe226      Fe  0.14109686  0.18731771  0.74139260     1.73200
Fe227      Fe  0.13379102  0.29378984  0.74280389     1.54400
O228        O  0.08514607  0.28909355  0.68209975    -0.81300
O229        O  0.19581733  0.23467731  0.79718772    -0.79600
O230        O  0.00928424  0.22474639  0.70298735    -0.83800
O231        O  0.02559760  0.23044700  0.82010843    -0.78700
O232        O  0.18449340  0.29947515  0.68456762    -0.80400
O233        O  0.10457743  0.13881680  0.80261149    -0.83200
C234        C  0.05060898  0.27690227  0.82640588     0.97600
C235        C  0.03773300  0.26061757  0.67288960     1.05000
O236        O  0.09955391  0.22152648  0.74833266    -1.12200
O237        O  0.08921499  0.13706117  0.68845279    -0.74600
O238        O  0.01347516  0.13551283  0.70024008    -0.78100
O239        O  0.08882432  0.30395697  0.79765442    -0.78800
C240        C  0.04197757  0.12113356  0.67734722     0.96500
O241        O  0.02891294  0.13715593  0.81373538    -0.76700
O242        O  0.18221516  0.22763840  0.67516385    -0.81900
C243        C  0.20465441  0.27494746  0.82026214     0.99100
C244        C  0.19604118  0.27105488  0.65910218     1.05000
O245        O  0.18398330  0.30069645  0.80433814    -0.77600
C246        C  0.06059123  0.12158410  0.82428276     1.03300
Fe247      Fe  0.35814036  0.11071622  0.74957022     1.65800
Fe248      Fe  0.24287096  0.00579991  0.75329415     1.73200
Fe249      Fe  0.24569217  0.11716943  0.75479949     1.54400
O250        O  0.30093231  0.17178263  0.80110761    -0.81300
O251        O  0.20300123  0.00687906  0.68890498    -0.79600
O252        O  0.36777338  0.15787544  0.81112390    -0.83800
O253        O  0.36340642  0.16567929  0.69720202    -0.78700
O254        O  0.20143306  0.07887845  0.82011954    -0.80400
O255        O  0.29403174  0.99630266  0.70388038    -0.83200
C256        C  0.33287154  0.17932221  0.67697629     0.97600
C257        C  0.34500136  0.18315606  0.81974044     1.05000
O258        O  0.28243973  0.07826843  0.75335499    -1.12200
O259        O  0.28079308  0.99946788  0.81851414    -0.74600
O260        O  0.36174802  0.05797875  0.80206387    -0.78100
O261        O  0.28536494  0.15955484  0.68957805    -0.78800
C262        C  0.32893512  0.01881267  0.82662120     0.96500
O263        O  0.35817140  0.07053678  0.68524153    -0.76700
O264        O  0.18283995  0.00180636  0.80066481    -0.81900
C265        C  0.17570584  0.02811674  0.68414241     0.99100
C266        C  0.17303299  0.03228694  0.82505222     1.05000
O267        O  0.18545538  0.06756153  0.70855116    -0.77600
C268        C  0.33419619  0.02464312  0.67745930     1.03300
C269        C  0.29427751  0.29624150  0.55019975    -0.11900
C270        C  0.31798784  0.34638231  0.53704572     0.05100
C271        C  0.28036351  0.36418906  0.55477911    -0.07200
C272        C  0.24110091  0.33812118  0.59300950    -0.07900
C273        C  0.22867202  0.29156886  0.61052374    -0.02500
C274        C  0.25110903  0.26852371  0.58271464     0.04300
N275        N  0.22908240  0.21646523  0.58416719     0.66800
H276        H  0.31148509  0.27747709  0.53740253     0.15700
H277        H  0.21928892  0.35512898  0.60905835     0.15400
N278        N  0.27427504  0.40542352  0.53782527     0.74500
O279        O  0.19434717  0.19138707  0.55165852    -0.38900
O280        O  0.25310079  0.19750516  0.60646914    -0.38900
O281        O  0.23630011  0.39580641  0.50851623    -0.39600
O282        O  0.28265168  0.43822508  0.57161275    -0.39600
C283        C  0.28330257  0.28407087  0.87033693    -0.11900
C284        C  0.24209686  0.29413417  0.86619726     0.05100
C285        C  0.24451279  0.33093223  0.90060875    -0.07200
C286        C  0.28748598  0.35618886  0.93425664    -0.07900
C287        C  0.33145446  0.34901622  0.93769193    -0.02500
C288        C  0.33064580  0.32315543  0.88864226     0.04300
N289        N  0.35483051  0.35208968  0.84201664     0.66800
H290        H  0.28524848  0.25926023  0.84127578     0.15700
H291        H  0.28740278  0.38387715  0.95597697     0.15400
N292        N  0.20218432  0.34058786  0.90530171     0.74500
O293        O  0.37731011  0.33733893  0.81024577    -0.38900
O294        O  0.33555848  0.37700329  0.82229207    -0.38900
O295        O  0.16335603  0.31136306  0.93224080    -0.39600
O296        O  0.20759571  0.38219111  0.89203689    -0.39600
C297        C  0.34555025  0.47030255  0.96048297    -0.11900
C298        C  0.38216941  0.45227416  0.95344969     0.05100
C299        C  0.39492598  0.95209620  0.89630380    -0.07200
C300        C  0.37792467  0.97415911  0.85638503    -0.07900
C301        C  0.34631680  0.99510676  0.86787542    -0.02500
C302        C  0.32607500  0.48865733  0.92112535     0.04300
N303        N  0.29490293  0.51050492  0.93663441     0.66800
H304        H  0.33115242  0.47395726  0.99695385     0.15700
H305        H  0.38989103  0.97518930  0.81563014     0.15400
N306        N  0.42976637  0.93490893  0.88033592     0.74500
O307        O  0.24774627  0.48318326  0.94645941    -0.38900
O308        O  0.31502925  0.05551475  0.94834895    -0.38900
O309        O  0.43604709  0.40690245  0.91281415    -0.39600
O310        O  0.44922466  0.94259008  0.83439170    -0.39600
C311        C  0.35419328  0.45797671  0.65085466    -0.11900
C312        C  0.35468638  0.00290737  0.63771050     0.05100
C313        C  0.38294301  0.02813371  0.59325792    -0.07200
C314        C  0.39913148  0.00426091  0.55662095    -0.07900
C315        C  0.38868373  0.45273154  0.55994483    -0.02500
C316        C  0.36994566  0.43291063  0.61449027     0.04300
N317        N  0.36855718  0.39121220  0.64067339     0.66800
H318        H  0.33936883  0.44150512  0.68941824     0.15700
H319        H  0.41950833  0.02644117  0.52352254     0.15400
N320        N  0.39277767  0.07725092  0.58215777     0.74500
O321        O  0.39697162  0.40054357  0.68043650    -0.38900
O322        O  0.32530648  0.35413732  0.64687915    -0.38900
O323        O  0.42694072  0.11299957  0.60724623    -0.39600
O324        O  0.37055064  0.08533673  0.54415730    -0.39600
C325        C  0.99817184  0.03475565  0.64741521    -0.11900
C326        C  0.01914211  0.08422865  0.63558213     0.05100
C327        C  0.02399088  0.09812569  0.58331019    -0.07200
C328        C  0.01247239  0.06307674  0.54401831    -0.07900
C329        C  0.99262943  0.01060549  0.55187289    -0.02500
C330        C  0.98694971  0.99890716  0.60751875     0.04300
N331        N  0.47874405  0.95382283  0.62503063     0.66800
H332        H  0.99426935  0.02428465  0.68877597     0.15700
H333        H  0.02399678  0.08145458  0.50803232     0.15400
N334        N  0.04333533  0.14867954  0.56877645     0.74500
O335        O  0.49595436  0.95063813  0.66949825    -0.38900
O336        O  0.45916111  0.41606085  0.59736330    -0.38900
O337        O  0.09044439  0.17465854  0.55757420    -0.39600
O338        O  0.01201306  0.16267638  0.55359670    -0.39600
C339        C  0.99325724  0.04749267  0.86956006    -0.11900
C340        C  0.04519187  0.08181934  0.86412212     0.05100
C341        C  0.07737536  0.08397875  0.90556919    -0.07200
C342        C  0.05591881  0.04678078  0.94509919    -0.07900
C343        C  0.00167205  0.01172831  0.95185771    -0.02500
C344        C  0.47879953  0.03432260  0.91924702     0.04300
N345        N  0.46836698  0.07230251  0.94059231     0.66800
H346        H  0.47222134  0.04982445  0.83815672     0.15700
H347        H  0.08258262  0.05263083  0.97753160     0.15400
N348        N  0.12591155  0.12769521  0.91425930     0.74500
O349        O  0.42362965  0.06681004  0.93934224    -0.38900
O350        O  0.49972350  0.61518667  0.94135629    -0.38900
O351        O  0.12953381  0.16974956  0.90745204    -0.39600
O352        O  0.16112854  0.12495556  0.93912718    -0.39600
C353        C  0.10634019  0.45652394  0.64164727    -0.11900
C354        C  0.13139067  0.00562580  0.64812416     0.05100
C355        C  0.11664821  0.03275518  0.61642049    -0.07200
C356        C  0.08062575  0.00851305  0.57638362    -0.07900
C357        C  0.05891209  0.45706390  0.55957915    -0.02500
C358        C  0.08114222  0.43386346  0.59416411     0.04300
N359        N  0.09984821  0.40098492  0.57819647     0.66800
H360        H  0.11748278  0.43634335  0.66898236     0.15700
H361        H  0.07829629  0.03408025  0.55178016     0.15400
N362        N  0.14548269  0.08559536  0.61624508     0.74500
O363        O  0.13922863  0.41871426  0.54939971    -0.38900
O364        O  0.09871802  0.37110508  0.61288501    -0.38900
O365        O  0.19389347  0.10582609  0.61551323    -0.39600
O366        O  0.12453846  0.11065384  0.60188343    -0.39600
C367        C  0.05065999  0.45683165  0.90534558    -0.11900
C368        C  0.06602685  0.46544706  0.95974235     0.05100
C369        C  0.12014342  0.00058334  0.96172487    -0.07200
C370        C  0.14899373  0.02525473  0.91658005    -0.07900
C371        C  0.13210338  0.01248843  0.86649376    -0.02500
C372        C  0.08303145  0.47909219  0.86067499     0.04300
N373        N  0.06256887  0.46564090  0.80870374     0.66800
H374        H  0.01473657  0.42747147  0.89560401     0.15700
H375        H  0.18901485  0.05322146  0.92113173     0.15400
N376        N  0.15371423  0.02047577  0.00601155     0.74500
O377        O  0.04643214  0.42214324  0.79270847    -0.38900
O378        O  0.05606328  0.49593037  0.78064775    -0.38900
O379        O  0.18951704  0.00961442  0.00963212    -0.39600
O380        O  0.16715917  0.06498852  0.01610601    -0.39600
C381        C  0.05864436  0.35273562  0.87171885    -0.11900
C382        C  0.03572455  0.30136892  0.86872304     0.05100
C383        C  0.00232181  0.27510165  0.90969325    -0.07200
C384        C  0.98897385  0.30090830  0.94686174    -0.07900
C385        C  0.01005775  0.35228281  0.95299137    -0.02500
C386        C  0.05752331  0.37427363  0.92071219     0.04300
N387        N  0.10826855  0.39701024  0.94227439     0.66800
H388        H  0.08962166  0.37423771  0.84410815     0.15700
H389        H  0.45966202  0.28148415  0.97047963     0.15400
N390        N  0.48188086  0.22286345  0.91318629     0.74500
O391        O  0.14275038  0.43317612  0.91734321    -0.38900
O392        O  0.12300118  0.36875881  0.96274537    -0.38900
O393        O  0.01455090  0.20824214  0.92978787    -0.39600
O394        O  0.44096838  0.19351023  0.89037675    -0.39600
C395        C  0.02564007  0.31238641  0.54322610    -0.11900
C396        C  0.99748436  0.33908879  0.55439823     0.05100
C397        C  0.98020189  0.32812176  0.61049531    -0.07200
C398        C  0.97800250  0.28714765  0.63802876    -0.07900
C399        C  0.01414645  0.27234366  0.62746242    -0.02500
C400        C  0.03617989  0.28261647  0.57729773     0.04300
N401        N  0.07518549  0.26994881  0.56167883     0.66800
H402        H  0.04764111  0.31820960  0.50919846     0.15700
H403        H  0.96129208  0.27927642  0.67754274     0.15400
N404        N  0.48877450  0.36539542  0.65000115     0.74500
O405        O  0.07390624  0.25356652  0.51576552    -0.38900
O406        O  0.11764235  0.28941677  0.58520675    -0.38900
O407        O  0.44926390  0.35550047  0.67730774    -0.39600
O408        O  0.53018481  0.38368053  0.67540291    -0.39600
C409        C  0.33464951  0.21094341  0.90358453    -0.11900
C410        C  0.36491285  0.22243937  0.85977884     0.05100
C411        C  0.40517771  0.27099295  0.85381505    -0.07200
C412        C  0.41365273  0.30600137  0.89477357    -0.07900
C413        C  0.38816287  0.29388330  0.94585808    -0.02500
C414        C  0.34252478  0.24377905  0.94416080     0.04300
N415        N  0.29758938  0.22290351  0.97701884     0.66800
H416        H  0.30120728  0.17434338  0.90595472     0.15700
H417        H  0.44450771  0.34209562  0.88707146     0.15400
N418        N  0.43801664  0.28582253  0.80737270     0.74500
O419        O  0.28884339  0.18657788  0.00632890    -0.38900
O420        O  0.25908118  0.22621643  0.96111088    -0.38900
O421        O  0.46556583  0.33089477  0.79599562    -0.39600
O422        O  0.44184658  0.25423113  0.77886935    -0.39600
C423        C  0.36866914  0.20581280  0.58848844    -0.11900
C424        C  0.35337687  0.21764779  0.63444141     0.05100
C425        C  0.35867227  0.26483960  0.63871137    -0.07200
C426        C  0.38044384  0.29957379  0.59609162    -0.07900
C427        C  0.39367191  0.28925083  0.54524616    -0.02500
C428        C  0.38839525  0.23797343  0.54498474     0.04300
N429        N  0.40356744  0.21336806  0.50595603     0.66800
H430        H  0.36528589  0.16922779  0.58616188     0.15700
H431        H  0.38657004  0.33561433  0.60100076     0.15400
N432        N  0.34357368  0.27793555  0.68723588     0.77500
O433        O  0.44682967  0.21311445  0.01792576    -0.38900
O434        O  0.37234386  0.17709312  0.98314199    -0.38900
O435        O  0.29710912  0.26719656  0.69379667    -0.39600
O436        O  0.36964315  0.28171233  0.72759428    -0.39600
C437        C  0.41018711  0.83289045  0.99700766    -0.02100
C438        C  0.48481524  0.87082539  0.50307350    -0.02100
C439        C  0.01922339  0.93820755  0.50773700    -0.02100
C440        C  0.47768214  0.46976597  0.00265119    -0.02100
C441        C  0.40755764  0.93494510  0.50241136    -0.02100
C442        C  0.37122020  0.86832529  0.49292243    -0.02100
Fe443      Fe  0.02657256  0.68586332  0.25899202     1.65800
Fe444      Fe  0.14392979  0.69010449  0.23996987     1.73200
Fe445      Fe  0.13526252  0.79628548  0.24041069     1.54400
O446        O  0.08361515  0.79151572  0.18333510    -0.81300
O447        O  0.19740995  0.73673901  0.29665143    -0.79600
O448        O  0.01011572  0.72292438  0.20041080    -0.83800
O449        O  0.02714072  0.73349463  0.31734402    -0.78700
O450        O  0.18166814  0.80049644  0.17850930    -0.80400
O451        O  0.10668317  0.63979830  0.30020982    -0.83200
C452        C  0.05375332  0.77953587  0.32583644     0.97600
C453        C  0.03723420  0.76095555  0.17251717     1.05000
O454        O  0.10181825  0.72384634  0.24703577    -1.12200
O455        O  0.09327014  0.64124710  0.18545456    -0.74600
O456        O  0.01600886  0.63474026  0.20224520    -0.78100
O457        O  0.09356101  0.80653075  0.29902694    -0.78800
C458        C  0.04530653  0.62296950  0.17670143     0.96500
O459        O  0.03290425  0.64079597  0.31578660    -0.76700
O460        O  0.18623464  0.73151034  0.17480444    -0.81900
C461        C  0.20838682  0.77879236  0.31646888     0.99100
C462        C  0.19619948  0.77304310  0.15562897     1.05000
O463        O  0.18931853  0.80501266  0.29800730    -0.77600
C464        C  0.06366410  0.62356214  0.32388363     1.03300
Fe465      Fe  0.36089419  0.61159127  0.25140012     1.65800
Fe466      Fe  0.24549028  0.50555987  0.25325837     1.73200
Fe467      Fe  0.24726730  0.61632526  0.25503919     1.54400
O468        O  0.30137335  0.67120289  0.30198107    -0.81300
O469        O  0.20488010  0.50583057  0.18875535    -0.79600
O470        O  0.36946042  0.65938409  0.31197102    -0.83800
O471        O  0.36565309  0.66543445  0.19740914    -0.78700
O472        O  0.20269101  0.57724885  0.32008471    -0.80400
O473        O  0.29709764  0.49730502  0.20386415    -0.83200
C474        C  0.33483746  0.67879575  0.17711701     0.97600
C475        C  0.34573404  0.68373960  0.32051366     1.05000
O476        O  0.28481957  0.57816748  0.25377291    -1.12200
O477        O  0.28331722  0.49925889  0.31850490    -0.74600
O478        O  0.36408964  0.55986974  0.30561254    -0.78100
O479        O  0.28742835  0.65923220  0.19019338    -0.78800
C480        C  0.33108394  0.51989382  0.32879230     0.96500
O481        O  0.36364213  0.57126060  0.18829676    -0.76700
O482        O  0.18528563  0.50049533  0.30082587    -0.81900
C483        C  0.17789016  0.52734944  0.18346474     0.99100
C484        C  0.17504558  0.53058399  0.32534818     1.05000
O485        O  0.18773240  0.56679567  0.20792207    -0.77600
C486        C  0.33841700  0.52561182  0.17917918     1.03300
C487        C  0.29395071  0.79704877  0.04684561    -0.11900
C488        C  0.31767569  0.84703219  0.03372645     0.05100
C489        C  0.27983975  0.86487841  0.05029746    -0.07200
C490        C  0.24014367  0.83890518  0.08808458    -0.07900
C491        C  0.22810298  0.79268576  0.10651690    -0.02500
C492        C  0.25099884  0.76949496  0.07967277     0.04300
N493        N  0.22935499  0.71744358  0.08216572     0.66800
H494        H  0.31152062  0.77887516  0.03359267     0.15700
H495        H  0.21801450  0.85589162  0.10333066     0.15400
N496        N  0.27409248  0.90612291  0.03262217     0.74500
O497        O  0.19335735  0.69155945  0.05125725    -0.38900
O498        O  0.25388482  0.69886406  0.10425701    -0.38900
O499        O  0.23630638  0.89626918  0.00292608    -0.39600
O500        O  0.28248564  0.93933989  0.06595722    -0.39600
C501        C  0.28498148  0.78652250  0.36914112    -0.11900
C502        C  0.24578897  0.79908746  0.36216958     0.05100
C503        C  0.25038356  0.83862926  0.39365360    -0.07200
C504        C  0.29185551  0.86149142  0.42964055    -0.07900
C505        C  0.33389948  0.85154697  0.43569796    -0.02500
C506        C  0.33289430  0.82477574  0.38732316     0.04300
N507        N  0.35835742  0.85294656  0.34049083     0.66800
H508        H  0.28588618  0.75994532  0.34184715     0.15700
H509        H  0.29287143  0.89038469  0.44974180     0.15400
N510        N  0.21375945  0.85614992  0.39021762     0.74500
O511        O  0.37888966  0.83612733  0.30880486    -0.38900
O512        O  0.34138285  0.87959100  0.32032796    -0.38900
O513        O  0.16770152  0.82846425  0.40418194    -0.39600
O514        O  0.22804830  0.90025985  0.37701428    -0.39600
C515        C  0.34968667  0.97501864  0.45996606    -0.11900
C516        C  0.38471337  0.95511059  0.45295156     0.05100
C517        C  0.39493343  0.45195381  0.39907060    -0.07200
C518        C  0.37843711  0.47427601  0.35908970    -0.07900
C519        C  0.34766860  0.49605767  0.37046367    -0.02500
C520        C  0.33068194  0.99353190  0.42034091     0.04300
N521        N  0.29852349  0.01459878  0.43497691     0.66800
H522        H  0.33516070  0.97870129  0.49629240     0.15700
H523        H  0.39060985  0.47531964  0.31840628     0.15400
N524        N  0.42998110  0.43498109  0.38344849     0.74500
O525        O  0.25343820  0.98712326  0.45190523    -0.38900
O526        O  0.32071471  0.55823174  0.45350517    -0.38900
O527        O  0.43768830  0.90841303  0.41201111    -0.39600
O528        O  0.44984138  0.44298198  0.33766728    -0.39600
C529        C  0.35044883  0.95732013  0.14629479    -0.11900
C530        C  0.35820911  0.50389059  0.13915675     0.05100
C531        C  0.37935299  0.52622071  0.09092401    -0.07200
C532        C  0.39714498  0.50255447  0.05547822    -0.07900
C533        C  0.38882020  0.95321294  0.05722625    -0.02500
C534        C  0.36776654  0.93273467  0.11095190     0.04300
N535        N  0.36676446  0.89159110  0.13804722     0.66800
H536        H  0.33231441  0.93926974  0.18333364     0.15700
H537        H  0.41575028  0.52353042  0.02093751     0.15400
N538        N  0.37726636  0.56970329  0.07417053     0.74500
O539        O  0.39416374  0.90189321  0.17872797    -0.38900
O540        O  0.32388579  0.85389913  0.14357984    -0.38900
O541        O  0.41120361  0.60020282  0.04317745    -0.39600
O542        O  0.33669772  0.57275952  0.08192404    -0.39600
C543        C  0.00117052  0.53650115  0.14723634    -0.11900
C544        C  0.02235640  0.58594415  0.13508769     0.05100
C545        C  0.02578287  0.59939859  0.08275416    -0.07200
C546        C  0.01322990  0.56400638  0.04378275    -0.07900
C547        C  0.99378420  0.51163725  0.05180654    -0.02500
C548        C  0.98868971  0.50022770  0.10750789     0.04300
N549        N  0.47877565  0.45046250  0.12551799     0.66800
H550        H  0.99779741  0.52636546  0.18866267     0.15700
H551        H  0.02269506  0.58200110  0.00759428     0.15400
N552        N  0.04290112  0.64947040  0.06755050     0.74500
O553        O  0.49660892  0.44698224  0.16951661    -0.38900
O554        O  0.45677420  0.91501734  0.09522434    -0.38900
O555        O  0.08993987  0.67681440  0.05705935    -0.39600
O556        O  0.01042606  0.66054524  0.04882383    -0.39600
C557        C  0.99537645  0.54859499  0.36799069    -0.11900
C558        C  0.04759948  0.58202567  0.36198190     0.05100
C559        C  0.07979536  0.58183660  0.40199360    -0.07200
C560        C  0.05809025  0.54538830  0.44229479    -0.07900
C561        C  0.00342456  0.51146124  0.44998377    -0.02500
C562        C  0.47738740  0.53521866  0.42266939     0.04300
N563        N  0.46737846  0.57327083  0.44437953     0.66800
H564        H  0.47042920  0.55166390  0.34208585     0.15700
H565        H  0.08477493  0.55114250  0.47182401     0.15400
N566        N  0.12864575  0.62442938  0.41060386     0.74500
O567        O  0.42272311  0.56798027  0.44331372    -0.38900
O568        O  0.50308689  0.11906314  0.44429196    -0.38900
O569        O  0.13044705  0.65982841  0.43705040    -0.39600
O570        O  0.16982345  0.62341833  0.40018414    -0.39600
C571        C  0.10774256  0.95475567  0.13968076    -0.11900
C572        C  0.13372826  0.50532265  0.14690750     0.05100
C573        C  0.11888649  0.53298828  0.11597474    -0.07200
C574        C  0.08198898  0.50923267  0.07645844    -0.07900
C575        C  0.05886023  0.95726426  0.05970557    -0.02500
C576        C  0.08297375  0.93390859  0.09142139     0.04300
N577        N  0.10511468  0.90499325  0.07119887     0.66800
H578        H  0.12016754  0.93407510  0.16486991     0.15700
H579        H  0.07929178  0.53509050  0.05256582     0.15400
N580        N  0.14781638  0.58585042  0.11627840     0.74500
O581        O  0.14447204  0.92731601  0.04284708    -0.38900
O582        O  0.10684718  0.87401873  0.10255153    -0.38900
O583        O  0.19624545  0.60611626  0.11536372    -0.39600
O584        O  0.12682394  0.61099247  0.10231692    -0.39600
C585        C  0.05079433  0.95571086  0.40605378    -0.11900
C586        C  0.06560592  0.96386322  0.46065099     0.05100
C587        C  0.12152022  0.49732267  0.46222406    -0.07200
C588        C  0.15149368  0.52117410  0.41735997    -0.07900
C589        C  0.13438435  0.51020841  0.36709864    -0.02500
C590        C  0.08381079  0.97813446  0.36163787     0.04300
N591        N  0.06384561  0.96604136  0.30914906     0.66800
H592        H  0.01453375  0.92694177  0.39625339     0.15700
H593        H  0.19206475  0.54744696  0.42222288     0.15400
N594        N  0.15447392  0.51634966  0.50699255     0.74500
O595        O  0.03199810  0.92227898  0.29766004    -0.38900
O596        O  0.07597575  0.99947837  0.27471047    -0.38900
O597        O  0.18619132  0.50083707  0.51457324    -0.39600
O598        O  0.17189328  0.56194359  0.51495689    -0.39600
C599        C  0.06243094  0.85459970  0.37391613    -0.11900
C600        C  0.03845581  0.80333152  0.36853707     0.05100
C601        C  0.00307060  0.77602595  0.40767135    -0.07200
C602        C  0.98864745  0.80091059  0.44487281    -0.07900
C603        C  0.01031569  0.85208772  0.45318856    -0.02500
C604        C  0.05960668  0.87428729  0.42364069     0.04300
N605        N  0.10926624  0.89537618  0.44786887     0.66800
H606        H  0.09466731  0.87670404  0.34787651     0.15700
H607        H  0.46168097  0.78319139  0.47220076     0.15400
N608        N  0.48343874  0.72412947  0.41382191     0.74500
O609        O  0.14546868  0.93176236  0.42487685    -0.38900
O610        O  0.12212541  0.86579039  0.46852156    -0.38900
O611        O  0.01376554  0.70807828  0.42696429    -0.39600
O612        O  0.44068033  0.69455297  0.39434520    -0.39600
C613        C  0.02721271  0.81457011  0.04400322    -0.11900
C614        C  0.99859781  0.84066441  0.05512672     0.05100
C615        C  0.98100308  0.82926449  0.11100377    -0.07200
C616        C  0.97787053  0.78768705  0.13796072    -0.07900
C617        C  0.01355435  0.77247802  0.12723837    -0.02500
C618        C  0.03632797  0.78350617  0.07750039     0.04300
N619        N  0.07384534  0.76907845  0.06139852     0.66800
H620        H  0.05078657  0.82234852  0.01067579     0.15700
H621        H  0.96100180  0.77953299  0.17742308     0.15400
N622        N  0.48383901  0.86318532  0.14981391     0.74500
O623        O  0.07318390  0.75470089  0.01464854    -0.38900
O624        O  0.11479012  0.78389265  0.08708177    -0.38900
O625        O  0.44242156  0.85293449  0.17351942    -0.39600
O626        O  0.52276483  0.88078264  0.17907426    -0.39600
C627        C  0.33431818  0.71326000  0.40305329    -0.11900
C628        C  0.36533579  0.72365679  0.35993180     0.05100
C629        C  0.40664603  0.77175565  0.35410511    -0.07200
C630        C  0.41557407  0.80715134  0.39480323    -0.07900
C631        C  0.38974150  0.79560773  0.44565755    -0.02500
C632        C  0.34305306  0.74628853  0.44365281     0.04300
N633        N  0.29828415  0.72634689  0.47665044     0.66800
H634        H  0.30005500  0.67722745  0.40523321     0.15700
H635        H  0.44660738  0.84317695  0.38698804     0.15400
N636        N  0.43921490  0.78614516  0.30743914     0.74500
O637        O  0.28928980  0.69036173  0.50661614    -0.38900
O638        O  0.26005194  0.73024473  0.46092336    -0.38900
O639        O  0.46750987  0.83112651  0.29615057    -0.39600
O640        O  0.44164560  0.75421626  0.27829567    -0.39600
C641        C  0.37169452  0.70611250  0.08885345    -0.11900
C642        C  0.35481570  0.71703583  0.13436301     0.05100
C643        C  0.35722150  0.76313388  0.13774558    -0.07200
C644        C  0.37796672  0.79778216  0.09483484    -0.07900
C645        C  0.39267904  0.78825578  0.04441620    -0.02500
C646        C  0.38947960  0.73775351  0.04471321     0.04300
N647        N  0.40394265  0.71307207  0.00512350     0.66800
H648        H  0.37042462  0.67041052  0.08707377     0.15700
H649        H  0.38242819  0.83335390  0.09934156     0.15400
N650        N  0.34082552  0.77555774  0.18595397     0.77500
O651        O  0.44590200  0.71208218  0.51449704    -0.38900
O652        O  0.37037036  0.67777581  0.48211063    -0.38900
O653        O  0.29465974  0.76630739  0.19062984    -0.39600
O654        O  0.36499059  0.77766298  0.22736556    -0.39600
C655        C  0.41126455  0.83454440  0.49690071    -0.02100
C656        C  0.48367766  0.86821487  0.00359017    -0.02100
C657        C  0.01858806  0.93733771  0.00712266    -0.02100
C658        C  0.47876867  0.47055537  0.50408229    -0.02100
C659        C  0.40742285  0.93389604  0.00182576    -0.02100
C660        C  0.37068436  0.86726293  0.99293244    -0.02100
Fe661      Fe  0.02731148  0.68420508  0.75830636     1.65800
Fe662      Fe  0.14524536  0.68956129  0.73975774     1.73200
Fe663      Fe  0.13545511  0.79525249  0.74145167     1.54400
O664        O  0.08383334  0.79111149  0.68449895    -0.81300
O665        O  0.19736995  0.73535320  0.79753257    -0.79600
O666        O  0.01099130  0.72102536  0.69899622    -0.83800
O667        O  0.02606228  0.73145647  0.81663799    -0.78700
O668        O  0.18223743  0.80062135  0.67950441    -0.80400
O669        O  0.10769321  0.63845328  0.79937288    -0.83200
C670        C  0.05310906  0.77726970  0.82628245     0.97600
C671        C  0.03783739  0.76023404  0.67258611     1.05000
O672        O  0.10254271  0.72277930  0.74694224    -1.12200
O673        O  0.09593427  0.64132611  0.68377919    -0.74600
O674        O  0.01805498  0.63291625  0.70178128    -0.78100
O675        O  0.09352971  0.80427450  0.80041255    -0.78800
C676        C  0.04779809  0.62214473  0.67548268     0.96500
O677        O  0.03445526  0.64024708  0.81593781    -0.76700
O678        O  0.18834590  0.73240380  0.67578473    -0.81900
C679        C  0.20793037  0.77711089  0.81773517     0.99100
C680        C  0.19780474  0.77388236  0.65683995     1.05000
O681        O  0.18917586  0.80356584  0.79922967    -0.77600
C682        C  0.06524886  0.62301751  0.82398168     1.03300
Fe683      Fe  0.35920741  0.61061492  0.75136092     1.65800
Fe684      Fe  0.24310506  0.50561207  0.75275020     1.73200
Fe685      Fe  0.24685070  0.61744412  0.75348490     1.54400
O686        O  0.30107667  0.67206391  0.80020938    -0.81300
O687        O  0.20294906  0.50663270  0.68808672    -0.79600
O688        O  0.36744290  0.65799247  0.81209210    -0.83800
O689        O  0.36533885  0.66528828  0.69725838    -0.78700
O690        O  0.20231572  0.57942092  0.81872311    -0.80400
O691        O  0.29450698  0.49626543  0.70381085    -0.83200
C692        C  0.33505096  0.67905354  0.67630822     0.97600
C693        C  0.34464667  0.68331140  0.81983329     1.05000
O694        O  0.28329990  0.57816598  0.75299081    -1.12200
O695        O  0.28014396  0.49833205  0.81818287    -0.74600
O696        O  0.36127856  0.55808343  0.80540709    -0.78100
O697        O  0.28747174  0.65954772  0.68854094    -0.78800
C698        C  0.32788556  0.51811730  0.82833430     0.96500
O699        O  0.36170698  0.57000958  0.68867826    -0.76700
O700        O  0.18360576  0.50208676  0.80032824    -0.81900
C701        C  0.17647781  0.52871265  0.68269680     0.99100
C702        C  0.17444746  0.53292847  0.82479114     1.05000
O703        O  0.18699074  0.56850881  0.70660988    -0.77600
C704        C  0.33634463  0.52432684  0.67973489     1.03300
C705        C  0.29490703  0.79805727  0.54724231    -0.11900
C706        C  0.31831706  0.84789082  0.53374904     0.05100
C707        C  0.28064251  0.86571034  0.55076607    -0.07200
C708        C  0.24237875  0.84055413  0.59013536    -0.07900
C709        C  0.23015066  0.79414246  0.60815697    -0.02500
C710        C  0.25233966  0.77072356  0.58050146     0.04300
N711        N  0.23029828  0.71865911  0.58251450     0.66800
H712        H  0.31252231  0.77983067  0.53434283     0.15700
H713        H  0.22066987  0.85774498  0.60595779     0.15400
N714        N  0.27307489  0.90544254  0.53144079     0.74500
O715        O  0.19738200  0.69349212  0.54848407    -0.38900
O716        O  0.25248249  0.69954655  0.60803738    -0.38900
O717        O  0.23470061  0.89335261  0.50190055    -0.39600
O718        O  0.28057613  0.93933466  0.56358574    -0.39600
C719        C  0.28465341  0.78524330  0.86982184    -0.11900
C720        C  0.24481502  0.79693319  0.86369098     0.05100
C721        C  0.24850090  0.83568748  0.89579122    -0.07200
C722        C  0.29076620  0.85987278  0.93053281    -0.07900
C723        C  0.33335908  0.85068628  0.93587288    -0.02500
C724        C  0.33231757  0.82403278  0.88748976     0.04300
N725        N  0.35697875  0.85217349  0.84046141     0.66800
H726        H  0.28588845  0.75914356  0.84206193     0.15700
H727        H  0.29158631  0.88864150  0.95074074     0.15400
N728        N  0.20920589  0.84990902  0.89539084     0.74500
O729        O  0.37756831  0.83562336  0.80850045    -0.38900
O730        O  0.33942148  0.87851855  0.82072679    -0.38900
O731        O  0.16559085  0.82131350  0.91506458    -0.39600
O732        O  0.21957179  0.89282494  0.88102568    -0.39600
C733        C  0.34923613  0.97369039  0.95922586    -0.11900
C734        C  0.38469576  0.95428976  0.95215799     0.05100
C735        C  0.39274784  0.45045992  0.89774425    -0.07200
C736        C  0.37568976  0.47251467  0.85794914    -0.07900
C737        C  0.34401630  0.49337022  0.86953779    -0.02500
C738        C  0.32926842  0.99131240  0.91962790     0.04300
N739        N  0.29606565  0.01105955  0.93443536     0.66800
H740        H  0.33500739  0.97769509  0.99563282     0.15700
H741        H  0.38802527  0.47400181  0.81726000     0.15400
N742        N  0.42815429  0.43393530  0.88187884     0.74500
O743        O  0.24889032  0.98226165  0.94228194    -0.38900
O744        O  0.31632613  0.55468232  0.95201463    -0.38900
O745        O  0.43710800  0.90746530  0.91117260    -0.39600
O746        O  0.44744568  0.44160397  0.83586229    -0.39600
C747        C  0.34732210  0.95583946  0.64577017    -0.11900
C748        C  0.35663280  0.50270717  0.64018263     0.05100
C749        C  0.37858577  0.52571500  0.59249594    -0.07200
C750        C  0.39770105  0.50294456  0.55742182    -0.07900
C751        C  0.38869061  0.95369914  0.55797448    -0.02500
C752        C  0.36688808  0.93260044  0.61123057     0.04300
N753        N  0.36835712  0.89300539  0.63909404     0.66800
H754        H  0.32856525  0.93725213  0.68237636     0.15700
H755        H  0.41690166  0.52446160  0.52342030     0.15400
N756        N  0.37561356  0.56875594  0.57568525     0.74500
O757        O  0.39542912  0.90508039  0.68013861    -0.38900
O758        O  0.32672773  0.85386977  0.64429118    -0.38900
O759        O  0.40953217  0.59986019  0.54518406    -0.39600
O760        O  0.33448942  0.57091718  0.58297618    -0.39600
C761        C  0.00288901  0.53556841  0.64586205    -0.11900
C762        C  0.02510355  0.58513060  0.63364653     0.05100
C763        C  0.02939841  0.59856620  0.58116752    -0.07200
C764        C  0.01684176  0.56300216  0.54230086    -0.07900
C765        C  0.99517496  0.51040658  0.55050539    -0.02500
C766        C  0.98977659  0.49908493  0.60623007     0.04300
N767        N  0.48007893  0.45288796  0.62710057     0.66800
H768        H  0.99898248  0.52538349  0.68730216     0.15700
H769        H  0.02971826  0.58116763  0.50632083     0.15400
N770        N  0.04751379  0.64876420  0.56567754     0.74500
O771        O  0.49886548  0.45031749  0.67084528    -0.38900
O772        O  0.45773495  0.91707396  0.59516090    -0.38900
O773        O  0.09513215  0.67672044  0.55916209    -0.39600
O774        O  0.01640850  0.65981461  0.54357099    -0.39600
C775        C  0.99737918  0.54779586  0.86732337    -0.11900
C776        C  0.04951168  0.58219757  0.86290846     0.05100
C777        C  0.08035061  0.58419305  0.90553147    -0.07200
C778        C  0.05754812  0.54878787  0.94667803    -0.07900
C779        C  0.00333337  0.51328255  0.95157291    -0.02500
C780        C  0.47597604  0.53356651  0.91994682     0.04300
N781        N  0.46435910  0.57086847  0.94093904     0.66800
H782        H  0.46986504  0.54881832  0.83855609     0.15700
H783        H  0.08199232  0.55499154  0.97840919     0.15400
N784        N  0.12882646  0.62710816  0.91436528     0.74500
O785        O  0.41944880  0.56475725  0.93861240    -0.38900
O786        O  0.50418679  0.11644553  0.93990727    -0.38900
O787        O  0.13126734  0.65920106  0.94672751    -0.39600
O788        O  0.16984194  0.62946841  0.89653570    -0.39600
C789        C  0.10964917  0.95604046  0.63869455    -0.11900
C790        C  0.13182186  0.50660490  0.64695688     0.05100
C791        C  0.11937774  0.53356637  0.61248195    -0.07200
C792        C  0.08328947  0.50870373  0.57244200    -0.07900
C793        C  0.05866406  0.95782898  0.56057236    -0.02500
C794        C  0.08427620  0.93519334  0.59081445     0.04300
N795        N  0.10566794  0.90605188  0.56957751     0.66800
H796        H  0.12306231  0.93564617  0.66297606     0.15700
H797        H  0.08194431  0.53367167  0.54603814     0.15400
N798        N  0.14957781  0.58626264  0.61070605     0.74500
O799        O  0.14416863  0.92809267  0.53994138    -0.38900
O800        O  0.10805530  0.87518131  0.60058969    -0.38900
O801        O  0.19794872  0.60563442  0.61159232    -0.39600
O802        O  0.12984595  0.61177865  0.59442941    -0.39600
C803        C  0.04852243  0.95354553  0.90449035    -0.11900
C804        C  0.06382833  0.96278665  0.95900879     0.05100
C805        C  0.12265898  0.50312947  0.96279131    -0.07200
C806        C  0.15265504  0.52492974  0.91734577    -0.07900
C807        C  0.13470239  0.51366554  0.86723589    -0.02500
C808        C  0.08129919  0.97551371  0.85985038     0.04300
N809        N  0.06233231  0.95889538  0.80796181     0.66800
H810        H  0.01320434  0.92312483  0.89465612     0.15700
H811        H  0.19314597  0.55164308  0.92171333     0.15400
N812        N  0.15371542  0.52960507  0.00712742     0.74500
O813        O  0.05791162  0.91863569  0.79128040    -0.38900
O814        O  0.04731184  0.98311070  0.77978468    -0.38900
O815        O  0.19038797  0.52191904  0.01968706    -0.39600
O816        O  0.16332807  0.57397889  0.01120100    -0.39600
C817        C  0.06284450  0.85232142  0.87479936    -0.11900
C818        C  0.03780244  0.80116436  0.86900147     0.05100
C819        C  0.00208070  0.77427028  0.90792334    -0.07200
C820        C  0.98779430  0.79952573  0.94490993    -0.07900
C821        C  0.00955458  0.85083395  0.95296118    -0.02500
C822        C  0.05897150  0.87280732  0.92364171     0.04300
N823        N  0.10864043  0.89686428  0.94768783     0.66800
H824        H  0.09602095  0.87380475  0.84963907     0.15700
H825        H  0.45904308  0.78063201  0.96993562     0.15400
N826        N  0.48124069  0.72241608  0.91194672     0.74500
O827        O  0.14338510  0.93325952  0.92321176    -0.38900
O828        O  0.12357808  0.86910237  0.96898356    -0.38900
O829        O  0.01451533  0.70757203  0.92775369    -0.39600
O830        O  0.44006093  0.69365087  0.88921350    -0.39600
C831        C  0.02712009  0.81456495  0.54439206    -0.11900
C832        C  0.99920913  0.84130240  0.55560818     0.05100
C833        C  0.98258358  0.83057318  0.61186335    -0.07200
C834        C  0.97978022  0.78927595  0.63932971    -0.07900
C835        C  0.01433964  0.77282848  0.62783008    -0.02500
C836        C  0.03659573  0.78366431  0.57787252     0.04300
N837        N  0.07410744  0.76930381  0.56150454     0.66800
H838        H  0.05004091  0.82174235  0.51087538     0.15700
H839        H  0.96365856  0.78173313  0.67909058     0.15400
N840        N  0.48485678  0.86545483  0.64976273     0.74500
O841        O  0.07300351  0.75459468  0.51482178    -0.38900
O842        O  0.11556753  0.78502262  0.58649214    -0.38900
O843        O  0.44332650  0.85517275  0.67327532    -0.39600
O844        O  0.52366719  0.88283208  0.67917473    -0.39600
C845        C  0.33309183  0.71188482  0.90285941    -0.11900
C846        C  0.36408700  0.72271226  0.85965292     0.05100
C847        C  0.40529306  0.77078459  0.85400838    -0.07200
C848        C  0.41416550  0.80595679  0.89484669    -0.07900
C849        C  0.38835141  0.79409184  0.94573461    -0.02500
C850        C  0.34174086  0.74465638  0.94372360     0.04300
N851        N  0.29704101  0.72433994  0.97695863     0.66800
H852        H  0.29889206  0.67579438  0.90479576     0.15700
H853        H  0.44552748  0.84184652  0.88738904     0.15400
N854        N  0.43826115  0.78511774  0.80766891     0.74500
O855        O  0.28795448  0.68778362  0.00602037    -0.38900
O856        O  0.25878070  0.72847257  0.96178461    -0.38900
O857        O  0.46572997  0.83005926  0.79571980    -0.39600
O858        O  0.44202094  0.75322491  0.77963895    -0.39600
C859        C  0.37275636  0.70720447  0.58833364    -0.11900
C860        C  0.35571391  0.71778492  0.63389046     0.05100
C861        C  0.35838059  0.76400139  0.63759528    -0.07200
C862        C  0.37928369  0.79895844  0.59484371    -0.07900
C863        C  0.39408547  0.78976558  0.54431264    -0.02500
C864        C  0.39082409  0.73921952  0.54443736     0.04300
N865        N  0.40548241  0.71474780  0.50485439     0.66800
H866        H  0.37132856  0.67142917  0.58627547     0.15700
H867        H  0.38406708  0.83465326  0.59945136     0.15400
N868        N  0.34264573  0.77637061  0.68623169     0.77500
O869        O  0.44447054  0.71051096  0.01436232    -0.38900
O870        O  0.36880637  0.67608771  0.98242226    -0.38900
O871        O  0.29644440  0.76674656  0.69192907    -0.39600
O872        O  0.36757511  0.77857861  0.72705684    -0.39600
C873        C  0.91132059  0.33410511  0.99771598    -0.02100
C874        C  0.98304683  0.36752545  0.50315080    -0.02100
C875        C  0.51922122  0.43862604  0.50764005    -0.02100
C876        C  0.97867723  0.96968181  0.00284804    -0.02100
C877        C  0.90811977  0.43404252  0.50284817    -0.02100
C878        C  0.87064607  0.36749975  0.49353188    -0.02100
Fe879      Fe  0.52412473  0.18532432  0.25647787     1.65800
Fe880      Fe  0.64186118  0.18921978  0.24101379     1.73200
Fe881      Fe  0.63378975  0.29545770  0.24149949     1.54400
O882        O  0.58495944  0.29100651  0.18107440    -0.81300
O883        O  0.69466319  0.23582083  0.29866226    -0.79600
O884        O  0.51010897  0.22346658  0.19738733    -0.83800
O885        O  0.52273166  0.23205305  0.31492066    -0.78700
O886        O  0.68360968  0.30095934  0.18267482    -0.80400
O887        O  0.60318598  0.13948130  0.30069760    -0.83200
C888        C  0.54908774  0.27805643  0.32355313     0.97600
C889        C  0.53848129  0.26115461  0.16954668     1.05000
O890        O  0.59977726  0.22303242  0.24688346    -1.12200
O891        O  0.59210823  0.13986821  0.18595868    -0.74600
O892        O  0.51487429  0.13440935  0.19985442    -0.78100
O893        O  0.58927106  0.30511868  0.29731890    -0.78800
C894        C  0.54435951  0.12178760  0.17599336     0.96500
O895        O  0.52879603  0.14010365  0.31363165    -0.76700
O896        O  0.68536372  0.23072874  0.17649399    -0.81900
C897        C  0.70463447  0.27710381  0.32000702     0.99100
C898        C  0.69752382  0.27338253  0.15907840     1.05000
O899        O  0.68500457  0.30319295  0.30235334    -0.77600
C900        C  0.55975924  0.12350543  0.32335722     1.03300
Fe901      Fe  0.85949701  0.11177459  0.24989609     1.65800
Fe902      Fe  0.74449367  0.00611372  0.25370315     1.73200
Fe903      Fe  0.74635571  0.11705932  0.25340257     1.54400
O904        O  0.80091947  0.17249386  0.29926388    -0.81300
O905        O  0.70285226  0.00528173  0.18945727    -0.79600
O906        O  0.86747667  0.15859822  0.31114793    -0.83800
O907        O  0.86435179  0.16629157  0.19713580    -0.78700
O908        O  0.70258006  0.07955897  0.31900284    -0.80400
O909        O  0.79610871  0.99738465  0.20410599    -0.83200
C910        C  0.83349703  0.17914123  0.17613056     0.97600
C911        C  0.84452842  0.18381267  0.31892667     1.05000
O912        O  0.78361826  0.07860488  0.25283362    -1.12200
O913        O  0.78306630  0.00082707  0.31913616    -0.74600
O914        O  0.86377067  0.05997536  0.30324827    -0.78100
O915        O  0.78578463  0.15861132  0.18786139    -0.78800
C916        C  0.83112717  0.02081756  0.32788060     0.96500
O917        O  0.86112746  0.07160645  0.18591660    -0.76700
O918        O  0.68489330  0.00233395  0.30148647    -0.81900
C919        C  0.67593982  0.02692891  0.18404309     0.99100
C920        C  0.67482989  0.03304698  0.32501676     1.05000
O921        O  0.68627265  0.06682193  0.20769370    -0.77600
C922        C  0.83673814  0.02563952  0.17816014     1.03300
C923        C  0.79481514  0.29747690  0.04917393    -0.11900
C924        C  0.81885565  0.34757939  0.03616727     0.05100
C925        C  0.78178498  0.36585525  0.05414560    -0.07200
C926        C  0.74391888  0.34086750  0.09384286    -0.07900
C927        C  0.73079682  0.29399444  0.11099355    -0.02500
C928        C  0.75210310  0.27022183  0.08245405     0.04300
N929        N  0.72931710  0.21804617  0.08398932     0.66800
H930        H  0.81201929  0.27891287  0.03589304     0.15700
H931        H  0.72293850  0.35851184  0.11037478     0.15400
N932        N  0.77417461  0.40574084  0.03530135     0.74500
O933        O  0.69444892  0.19316417  0.05154124    -0.38900
O934        O  0.75172673  0.19824009  0.10784353    -0.38900
O935        O  0.73545770  0.39387601  0.00635901    -0.39600
O936        O  0.78234221  0.43979475  0.06745369    -0.39600
C937        C  0.78172250  0.28479380  0.37197811    -0.11900
C938        C  0.74220234  0.29697628  0.36593937     0.05100
C939        C  0.74689143  0.33618680  0.39804133    -0.07200
C940        C  0.79003650  0.36070991  0.43202113    -0.07900
C941        C  0.83233264  0.35090288  0.43702749    -0.02500
C942        C  0.82998685  0.32334569  0.38899832     0.04300
N943        N  0.85444245  0.35082373  0.34160320     0.66800
H944        H  0.78217649  0.25806605  0.34459905     0.15700
H945        H  0.79171273  0.39016028  0.45184290     0.15400
N946        N  0.70710579  0.34973879  0.39917569     0.74500
O947        O  0.87198982  0.33221502  0.30861196    -0.38900
O948        O  0.83816903  0.37851891  0.32275459    -0.38900
O949        O  0.66207778  0.31792905  0.41240492    -0.39600
O950        O  0.71768779  0.39411756  0.39261982    -0.39600
C951        C  0.85058288  0.47482843  0.46154720    -0.11900
C952        C  0.88524929  0.45465722  0.45379985     0.05100
C953        C  0.89486417  0.95203627  0.39770214    -0.07200
C954        C  0.87814388  0.97438996  0.35780816    -0.07900
C955        C  0.84852872  0.99743552  0.36952573    -0.02500
C956        C  0.83138648  0.49371057  0.42239161     0.04300
N957        N  0.80076892  0.51617027  0.43792300     0.66800
H958        H  0.83665176  0.47851051  0.49819326     0.15700
H959        H  0.88929582  0.97451465  0.31691205     0.15400
N960        N  0.92908778  0.93413818  0.38156520     0.74500
O961        O  0.75633990  0.48996691  0.45717710    -0.38900
O962        O  0.82793068  0.06419679  0.45009616    -0.38900
O963        O  0.93677683  0.40714151  0.41201816    -0.39600
O964        O  0.94845953  0.94174245  0.33557597    -0.39600
C965        C  0.84983472  0.45665469  0.14786085    -0.11900
C966        C  0.85721473  0.00353504  0.13898086     0.05100
C967        C  0.88195380  0.02688726  0.09243906    -0.07200
C968        C  0.89903994  0.00302953  0.05677836    -0.07900
C969        C  0.88950445  0.45377689  0.05921420    -0.02500
C970        C  0.86883653  0.43318278  0.11299613     0.04300
N971        N  0.87027047  0.39347930  0.14073162     0.66800
H972        H  0.83125175  0.43811366  0.18455506     0.15700
H973        H  0.91857792  0.02459434  0.02300672     0.15400
N974        N  0.88455346  0.07248158  0.07713851     0.74500
O975        O  0.89757964  0.40546071  0.18161241    -0.38900
O976        O  0.82861212  0.35439422  0.14609007    -0.38900
O977        O  0.92323597  0.11268015  0.08875427    -0.39600
O978        O  0.85043219  0.07243953  0.04765637    -0.39600
C979        C  0.50041646  0.03487286  0.14670544    -0.11900
C980        C  0.52192726  0.08443545  0.13449598     0.05100
C981        C  0.52596578  0.09784282  0.08211925    -0.07200
C982        C  0.51342418  0.06236484  0.04330639    -0.07900
C983        C  0.49325770  0.00995339  0.05126010    -0.02500
C984        C  0.48770333  0.99844546  0.10696384     0.04300
N985        N  0.97994296  0.95252710  0.12581998     0.66800
H986        H  0.49668967  0.02474404  0.18814802     0.15700
H987        H  0.52371341  0.08038530  0.00726372     0.15400
N988        N  0.54456028  0.14811887  0.06665699     0.74500
O989        O  0.99838702  0.94974577  0.16970723    -0.38900
O990        O  0.95892699  0.41703744  0.09595051    -0.38900
O991        O  0.59086491  0.17317699  0.05199745    -0.39600
O992        O  0.51239443  0.16098705  0.05117415    -0.39600
C993        C  0.49241395  0.05035585  0.36968682    -0.11900
C994        C  0.54435381  0.08404558  0.36344031     0.05100
C995        C  0.57695271  0.08633272  0.40445396    -0.07200
C996        C  0.55607217  0.04903519  0.44422935    -0.07900
C997        C  0.50176807  0.01399832  0.45113525    -0.02500
C998        C  0.97907787  0.03439511  0.41971262     0.04300
N999        N  0.97039433  0.07359533  0.44049268     0.66800
H1000       H  0.97254715  0.04888670  0.33830498     0.15700
H1001       H  0.58128782  0.05508640  0.47543154     0.15400
N1002       N  0.62479884  0.13073206  0.41319830     0.74500
O1003       O  0.92574646  0.06804197  0.44410961    -0.38900
O1004       O  0.00632998  0.61743095  0.44136253    -0.38900
O1005       O  0.62718006  0.17233030  0.40678618    -0.39600
O1006       O  0.66115429  0.12896274  0.43673087    -0.39600
C1007       C  0.60669935  0.45511949  0.13962952    -0.11900
C1008       C  0.63131842  0.00470170  0.14816827     0.05100
C1009       C  0.61751441  0.03202479  0.11557926    -0.07200
C1010       C  0.58133700  0.00777559  0.07547611    -0.07900
C1011       C  0.55831514  0.45796379  0.05948174    -0.02500
C1012       C  0.58259502  0.43471535  0.09092652     0.04300
N1013       N  0.60651522  0.40772171  0.06987090     0.66800
H1014       H  0.61900785  0.43431937  0.16468561     0.15700
H1015       H  0.57924662  0.03325461  0.05055096     0.15400
N1016       N  0.64685783  0.08488224  0.11517252     0.74500
O1017       O  0.64545598  0.43158382  0.04139886    -0.38900
O1018       O  0.60977524  0.37706787  0.10046915    -0.38900
O1019       O  0.69527848  0.10483307  0.11485526    -0.39600
O1020       O  0.62637698  0.11017938  0.10022926    -0.39600
C1021       C  0.55018714  0.45726991  0.40600762    -0.11900
C1022       C  0.56535372  0.46484884  0.46047808     0.05100
C1023       C  0.62165071  0.00454919  0.46187448    -0.07200
C1024       C  0.65083977  0.02782703  0.41644871    -0.07900
C1025       C  0.63410050  0.01388652  0.36647602    -0.02500
C1026       C  0.58288365  0.47961546  0.36168886     0.04300
N1027       N  0.56259990  0.46733455  0.30949818     0.66800
H1028       H  0.51425674  0.42841103  0.39573085     0.15700
H1029       H  0.69068081  0.05629733  0.42080729     0.15400
N1030       N  0.65395783  0.02858993  0.50629122     0.74500
O1031       O  0.54850051  0.42480673  0.29146029    -0.38900
O1032       O  0.55418988  0.49744995  0.28331363    -0.38900
O1033       O  0.69167426  0.02109624  0.51384059    -0.39600
O1034       O  0.66379142  0.07262662  0.51372175    -0.39600
C1035       C  0.55559859  0.35306889  0.36937644    -0.11900
C1036       C  0.53365054  0.30180154  0.36617581     0.05100
C1037       C  0.50144663  0.27498868  0.40775942    -0.07200
C1038       C  0.48803224  0.30010208  0.44578120    -0.07900
C1039       C  0.50886033  0.35150523  0.45230081    -0.02500
C1040       C  0.55557899  0.37401606  0.41904710     0.04300
N1041       N  0.60659026  0.39523550  0.43979654     0.66800
H1042       H  0.58591167  0.37492426  0.34127927     0.15700
H1043       H  0.95759174  0.27979024  0.46895500     0.15400
N1044       N  0.97978539  0.22124135  0.41172046     0.74500
O1045       O  0.64159848  0.43126355  0.41514724    -0.38900
O1046       O  0.62030477  0.36600508  0.45966412    -0.38900
O1047       O  0.51883279  0.21078601  0.42470513    -0.39600
O1048       O  0.94019569  0.19242503  0.38667699    -0.39600
C1049       C  0.53002574  0.31703969  0.04197554    -0.11900
C1050       C  0.49966418  0.34149994  0.05338526     0.05100
C1051       C  0.48091452  0.32827273  0.10858617    -0.07200
C1052       C  0.47796023  0.28614137  0.13401063    -0.07900
C1053       C  0.51569032  0.27333760  0.12404670    -0.02500
C1054       C  0.53982103  0.28626344  0.07515546     0.04300
N1055       N  0.57832017  0.27306758  0.05942665     0.66800
H1056       H  0.55317995  0.32474135  0.00831875     0.15700
H1057       H  0.45980801  0.27627167  0.17281917     0.15400
N1058       N  0.98623116  0.36579888  0.15043157     0.74500
O1059       O  0.57491770  0.25388207  0.01469225    -0.38900
O1060       O  0.62177539  0.29402281  0.08097183    -0.38900
O1061       O  0.94532747  0.35550109  0.17529974    -0.39600
O1062       O  0.02620972  0.38435267  0.17816191    -0.39600
C1063       C  0.83270622  0.21161524  0.40232675    -0.11900
C1064       C  0.86367350  0.22295533  0.35903703     0.05100
C1065       C  0.90447397  0.27121464  0.35360725    -0.07200
C1066       C  0.91304775  0.30612012  0.39458978    -0.07900
C1067       C  0.88737034  0.29385754  0.44553116    -0.02500
C1068       C  0.84113359  0.24401441  0.44354324     0.04300
N1069       N  0.79651319  0.22289913  0.47705275     0.66800
H1070       H  0.79876785  0.17533230  0.40410161     0.15700
H1071       H  0.94449882  0.34194211  0.38723741     0.15400
N1072       N  0.93728952  0.28610226  0.30721642     0.74500
O1073       O  0.78766920  0.18592235  0.50529111    -0.38900
O1074       O  0.75798663  0.22671190  0.46219683    -0.38900
O1075       O  0.96275628  0.33105082  0.29446131    -0.39600
O1076       O  0.94239537  0.25474908  0.27954187    -0.39600
C1077       C  0.87075477  0.20652656  0.08855745    -0.11900
C1078       C  0.85394390  0.21759002  0.13383961     0.05100
C1079       C  0.85810451  0.26431711  0.13796858    -0.07200
C1080       C  0.88001125  0.29936834  0.09557707    -0.07900
C1081       C  0.89422812  0.28960789  0.04507459    -0.02500
C1082       C  0.89019138  0.23873855  0.04514474     0.04300
N1083       N  0.90564856  0.21420643  0.00633216     0.66800
H1084       H  0.86838580  0.17032459  0.08651279     0.15700
H1085       H  0.88577922  0.33537989  0.10033177     0.15400
N1086       N  0.84280195  0.27690836  0.18665047     0.77500
O1087       O  0.94435815  0.21075445  0.51584193    -0.38900
O1088       O  0.86974053  0.17622159  0.48131422    -0.38900
O1089       O  0.79644079  0.26658229  0.19300306    -0.39600
O1090       O  0.86826924  0.27931778  0.22705695    -0.39600
C1091       C  0.90949040  0.33249649  0.49695373    -0.02100
C1092       C  0.98473908  0.37032288  0.00381586    -0.02100
C1093       C  0.51822588  0.43814530  0.00666472    -0.02100
C1094       C  0.97918304  0.97038390  0.50266764    -0.02100
C1095       C  0.90801876  0.43465790  0.00351233    -0.02100
C1096       C  0.87138165  0.36792462  0.99458723    -0.02100
Fe1097     Fe  0.52811343  0.18653543  0.75825720     1.65800
Fe1098     Fe  0.64516987  0.19012726  0.74128379     1.73200
Fe1099     Fe  0.63659003  0.29594845  0.74234472     1.54400
O1100       O  0.58938863  0.29099684  0.68040295    -0.81300
O1101       O  0.70043398  0.23927607  0.79556186    -0.79600
O1102       O  0.51311806  0.22848425  0.70356734    -0.83800
O1103       O  0.52982697  0.23060537  0.82106210    -0.78700
O1104       O  0.68947745  0.30270935  0.68610642    -0.80400
O1105       O  0.61052173  0.14284669  0.80424312    -0.83200
C1106       C  0.55302646  0.27723195  0.82623872     0.97600
C1107       C  0.54164280  0.26346599  0.67231837     1.05000
O1108       O  0.60318295  0.22375282  0.74775901    -1.12200
O1109       O  0.59275468  0.13788074  0.68983655    -0.74600
O1110       O  0.51824904  0.13957470  0.69730699    -0.78100
O1111       O  0.58947140  0.30486416  0.79574884    -0.78800
C1112       C  0.54623157  0.12347247  0.67662115     0.96500
O1113       O  0.53270066  0.13714519  0.81078634    -0.76700
O1114       O  0.68398480  0.22976331  0.67381208    -0.81900
C1115       C  0.70754740  0.27860272  0.81965367     0.99100
C1116       C  0.69932849  0.27386836  0.65918887     1.05000
O1117       O  0.68531612  0.30315305  0.80474859    -0.77600
C1118       C  0.56538664  0.12338291  0.82364602     1.03300
Fe1119     Fe  0.85874452  0.11012564  0.75096190     1.65800
Fe1120     Fe  0.74295909  0.00455432  0.75376036     1.73200
Fe1121     Fe  0.74586162  0.11601261  0.75556475     1.54400
O1122       O  0.80054324  0.17069912  0.80241175    -0.81300
O1123       O  0.70176570  0.00496078  0.68976175    -0.79600
O1124       O  0.86818318  0.15808627  0.81190559    -0.83800
O1125       O  0.86348514  0.16408771  0.69688320    -0.78700
O1126       O  0.70176461  0.07757815  0.82080020    -0.80400
O1127       O  0.79364192  0.99542014  0.70378032    -0.83200
C1128       C  0.83271791  0.17761930  0.67674244     0.97600
C1129       C  0.84476025  0.18266520  0.82099994     1.05000
O1130       O  0.78277015  0.07719677  0.75397842    -1.12200
O1131       O  0.78135888  0.99795940  0.81855572    -0.74600
O1132       O  0.86211594  0.05826568  0.80482157    -0.78100
O1133       O  0.78549360  0.15844514  0.69032364    -0.78800
C1134       C  0.82928769  0.01835289  0.82821805     0.96500
O1135       O  0.86030094  0.06923450  0.68786105    -0.76700
O1136       O  0.68358337  0.00051908  0.80177760    -0.81900
C1137       C  0.67527799  0.02702006  0.68456042     0.99100
C1138       C  0.67377453  0.03099420  0.82607648     1.05000
O1139       O  0.68573204  0.06667097  0.70890869    -0.77600
C1140       C  0.83481799  0.02355600  0.67879481     1.03300
C1141       C  0.79368637  0.29766940  0.54635204    -0.11900
C1142       C  0.81851764  0.34787426  0.53506363     0.05100
C1143       C  0.78215357  0.36655799  0.55382363    -0.07200
C1144       C  0.74510838  0.34182714  0.59427944    -0.07900
C1145       C  0.73165346  0.29456843  0.61054210    -0.02500
C1146       C  0.75171760  0.27050729  0.58043802     0.04300
N1147       N  0.72870048  0.21834011  0.58146004     0.66800
H1148       H  0.81040898  0.27951149  0.53075649     0.15700
H1149       H  0.72462562  0.35962701  0.61163760     0.15400
N1150       N  0.77371959  0.40571275  0.53422472     0.74500
O1151       O  0.69359987  0.19401713  0.54904931    -0.38900
O1152       O  0.75199455  0.19836173  0.60324666    -0.38900
O1153       O  0.73433282  0.39266591  0.50601372    -0.39600
O1154       O  0.78202609  0.44034625  0.56559891    -0.39600
C1155       C  0.78413409  0.28577480  0.87173546    -0.11900
C1156       C  0.74466960  0.29805820  0.86565936     0.05100
C1157       C  0.74884816  0.33681351  0.89817409    -0.07200
C1158       C  0.79113405  0.36041879  0.93299252    -0.07900
C1159       C  0.83356221  0.35100444  0.93789855    -0.02500
C1160       C  0.83211069  0.32407698  0.88951485     0.04300
N1161       N  0.85694456  0.35190030  0.84235890     0.66800
H1162       H  0.78496166  0.25938565  0.84411260     0.15700
H1163       H  0.79220199  0.38911065  0.95357443     0.15400
N1164       N  0.71020281  0.35189208  0.89793432     0.74500
O1165       O  0.87616157  0.33429690  0.81001896    -0.38900
O1166       O  0.84009273  0.37890346  0.82284703    -0.38900
O1167       O  0.66605008  0.32331338  0.91645663    -0.39600
O1168       O  0.72155032  0.39534260  0.88472786    -0.39600
C1169       C  0.84958454  0.47411674  0.96157186    -0.11900
C1170       C  0.88498248  0.45474138  0.95420909     0.05100
C1171       C  0.89370629  0.95063671  0.89827321    -0.07200
C1172       C  0.87660902  0.97254187  0.85836356    -0.07900
C1173       C  0.84637133  0.99487174  0.86997449    -0.02500
C1174       C  0.82993706  0.49223531  0.92224843     0.04300
N1175       N  0.79770591  0.51298360  0.93749673     0.66800
H1176       H  0.83515731  0.47762475  0.99801319     0.15700
H1177       H  0.88807879  0.97300333  0.81751597     0.15400
N1178       N  0.92837231  0.93330987  0.88222722     0.74500
O1179       O  0.75012267  0.48501872  0.94392725    -0.38900
O1180       O  0.81297529  0.05807808  0.92879899    -0.38900
O1181       O  0.93649842  0.40687240  0.91263332    -0.39600
O1182       O  0.94771520  0.94087440  0.83623567    -0.39600
C1183       C  0.84868733  0.45525374  0.64690088    -0.11900
C1184       C  0.85443188  0.00180542  0.63851749     0.05100
C1185       C  0.87838960  0.02578352  0.59182350    -0.07200
C1186       C  0.89800486  0.00324890  0.55689761    -0.07900
C1187       C  0.89021740  0.45327411  0.55898128    -0.02500
C1188       C  0.86854853  0.43224494  0.61241320     0.04300
N1189       N  0.87061462  0.39315277  0.64074916     0.66800
H1190       H  0.82960501  0.43643804  0.68330579     0.15700
H1191       H  0.91785771  0.02508188  0.52329649     0.15400
N1192       N  0.87726426  0.06989901  0.57572615     0.74500
O1193       O  0.89757668  0.40599952  0.68190390    -0.38900
O1194       O  0.82928544  0.35371159  0.64611844    -0.38900
O1195       O  0.91217781  0.10091338  0.54604719    -0.39600
O1196       O  0.83677439  0.07327447  0.58256784    -0.39600
C1197       C  0.50110696  0.03672582  0.64709028    -0.11900
C1198       C  0.52343203  0.08636096  0.63501747     0.05100
C1199       C  0.52789763  0.09997941  0.58269323    -0.07200
C1200       C  0.51447059  0.06444582  0.54385922    -0.07900
C1201       C  0.49347708  0.01189645  0.55160232    -0.02500
C1202       C  0.48800388  0.00032700  0.60725392     0.04300
N1203       N  0.97935031  0.95297201  0.62536174     0.66800
H1204       H  0.49724280  0.02646989  0.68850564     0.15700
H1205       H  0.52602299  0.08275482  0.50807088     0.15400
N1206       N  0.54824707  0.15050937  0.56724981     0.74500
O1207       O  0.99847256  0.95082606  0.66905137    -0.38900
O1208       O  0.95793848  0.41551501  0.59485168    -0.38900
O1209       O  0.59310095  0.17289285  0.54788035    -0.39600
O1210       O  0.51689587  0.16567171  0.55581608    -0.39600
C1211       C  0.49770525  0.04781527  0.86723910    -0.11900
C1212       C  0.54953440  0.08306546  0.86333739     0.05100
C1213       C  0.58048811  0.08523994  0.90613116    -0.07200
C1214       C  0.55816657  0.04777768  0.94572488    -0.07900
C1215       C  0.50363050  0.01221756  0.95084514    -0.02500
C1216       C  0.97602361  0.03419681  0.92198837     0.04300
N1217       N  0.96643782  0.07237073  0.94442625     0.66800
H1218       H  0.96727073  0.05036073  0.84170911     0.15700
H1219       H  0.58305412  0.05371966  0.97709662     0.15400
N1220       N  0.62847452  0.12908664  0.91616822     0.74500
O1221       O  0.92180521  0.06731313  0.94441405    -0.38900
O1222       O  0.00428070  0.61771822  0.93734828    -0.38900
O1223       O  0.63148198  0.17099297  0.91036884    -0.39600
O1224       O  0.66366835  0.12633495  0.94107804    -0.39600
C1225       C  0.61464114  0.45556536  0.63385088    -0.11900
C1226       C  0.63115639  0.00557598  0.64792728     0.05100
C1227       C  0.61816899  0.03377516  0.61564119    -0.07200
C1228       C  0.58194207  0.01037498  0.57529652    -0.07900
C1229       C  0.55930039  0.45758200  0.56000354    -0.02500
C1230       C  0.58800387  0.43581424  0.58619797     0.04300
N1231       N  0.61022601  0.40910732  0.56062322     0.66800
H1232       H  0.62973248  0.43515577  0.65560444     0.15700
H1233       H  0.57985785  0.03618821  0.55052003     0.15400
N1234       N  0.64840990  0.08652925  0.61593656     0.74500
O1235       O  0.64504965  0.43251267  0.52738219    -0.38900
O1236       O  0.61768983  0.37939359  0.58878705    -0.38900
O1237       O  0.69677018  0.10560050  0.61558483    -0.39600
O1238       O  0.62870377  0.11280117  0.60205406    -0.39600
C1239       C  0.54869626  0.45495799  0.90415985    -0.11900
C1240       C  0.56364130  0.46455775  0.95872263     0.05100
C1241       C  0.62032224  0.00042357  0.96261781    -0.07200
C1242       C  0.64956677  0.02460118  0.91753795    -0.07900
C1243       C  0.63296477  0.01123016  0.86743526    -0.02500
C1244       C  0.58183861  0.47649734  0.85963890     0.04300
N1245       N  0.56344044  0.45897699  0.80782309     0.66800
H1246       H  0.51350533  0.42435230  0.89425595     0.15700
H1247       H  0.68951013  0.05268543  0.92224956     0.15400
N1248       N  0.65309727  0.02098006  0.00729935     0.74500
O1249       O  0.56270416  0.42028513  0.79090401    -0.38900
O1250       O  0.54550124  0.48082712  0.77983811    -0.38900
O1251       O  0.68830535  0.00966467  0.01312280    -0.39600
O1252       O  0.66661672  0.06566590  0.01642720    -0.39600
C1253       C  0.56368583  0.35257537  0.87453213    -0.11900
C1254       C  0.53801211  0.30139156  0.86888802     0.05100
C1255       C  0.50192671  0.27489953  0.90770307    -0.07200
C1256       C  0.48790656  0.30060779  0.94424896    -0.07900
C1257       C  0.50971158  0.35198287  0.95183268    -0.02500
C1258       C  0.55930863  0.37384293  0.92263175     0.04300
N1259       N  0.60910141  0.39981307  0.94631990     0.66800
H1260       H  0.59732298  0.37358812  0.84978131     0.15700
H1261       H  0.96224927  0.28254253  0.97470878     0.15400
N1262       N  0.98378860  0.22335289  0.91573633     0.74500
O1263       O  0.64282051  0.43638580  0.92118758    -0.38900
O1264       O  0.62575494  0.37353450  0.96790606    -0.38900
O1265       O  0.51004329  0.20663443  0.93221304    -0.39600
O1266       O  0.94077086  0.19306122  0.89726778    -0.39600
C1267       C  0.53005224  0.31727383  0.54357250    -0.11900
C1268       C  0.50043344  0.34231815  0.55473650     0.05100
C1269       C  0.48335881  0.33070145  0.61054762    -0.07200
C1270       C  0.48095617  0.28922890  0.63728638    -0.07900
C1271       C  0.51817672  0.27570147  0.62701074    -0.02500
C1272       C  0.54079965  0.28724746  0.57716144     0.04300
N1273       N  0.57805973  0.27272868  0.56005688     0.66800
H1274       H  0.55281139  0.32514950  0.50975697     0.15700
H1275       H  0.46386153  0.28060119  0.67660102     0.15400
N1276       N  0.98282266  0.36242024  0.64941790     0.74500
O1277       O  0.57573995  0.25706334  0.51361816    -0.38900
O1278       O  0.61988060  0.28806516  0.58430465    -0.38900
O1279       O  0.94150395  0.35323409  0.67268770    -0.39600
O1280       O  0.02154647  0.37912760  0.67897031    -0.39600
C1281       C  0.83402020  0.21218741  0.90415557    -0.11900
C1282       C  0.86473775  0.22240223  0.86078280     0.05100
C1283       C  0.90584728  0.27049982  0.85465083    -0.07200
C1284       C  0.91519744  0.30612219  0.89529330    -0.07900
C1285       C  0.88965908  0.29486906  0.94642707    -0.02500
C1286       C  0.84295839  0.24543142  0.94470351     0.04300
N1287       N  0.79841586  0.22551137  0.97812365     0.66800
H1288       H  0.79977316  0.17617051  0.90650624     0.15700
H1289       H  0.94617267  0.34212355  0.88700710     0.15400
N1290       N  0.93769548  0.28457206  0.80752276     0.74500
O1291       O  0.78922448  0.18906990  0.00743803    -0.38900
O1292       O  0.76023850  0.22983231  0.96309726    -0.38900
O1293       O  0.96373222  0.32933808  0.79433877    -0.39600
O1294       O  0.94152641  0.25264265  0.77964075    -0.39600
C1295       C  0.86900995  0.20471403  0.58807696    -0.11900
C1296       C  0.85247950  0.21573041  0.63375732     0.05100
C1297       C  0.85562293  0.26211911  0.63740701    -0.07200
C1298       C  0.87649601  0.29683609  0.59443893    -0.07900
C1299       C  0.89132795  0.28745765  0.54412682    -0.02500
C1300       C  0.88791151  0.23687461  0.54439287     0.04300
N1301       N  0.90381377  0.21286591  0.50544224     0.66800
H1302       H  0.86732052  0.16885829  0.58607603     0.15700
H1303       H  0.88238463  0.33291613  0.59888512     0.15400
N1304       N  0.84010018  0.27471381  0.68604709     0.77500
O1305       O  0.94582871  0.21147317  0.01714869    -0.38900
O1306       O  0.87106410  0.17736130  0.98291574    -0.38900
O1307       O  0.79367875  0.26422641  0.69215750    -0.39600
O1308       O  0.86567588  0.27791974  0.72668892    -0.39600
C1309       C  0.90990771  0.83241396  0.99779233    -0.02100
C1310       C  0.98404021  0.86915617  0.50407604    -0.02100
C1311       C  0.51952185  0.93999854  0.50652892    -0.02100
C1312       C  0.97967276  0.47134151  0.00259639    -0.02100
C1313       C  0.90745147  0.93392816  0.50319375    -0.02100
C1314       C  0.87067799  0.86717809  0.49463050    -0.02100
Fe1315     Fe  0.52670913  0.68499449  0.25959307     1.65800
Fe1316     Fe  0.64373111  0.68804552  0.24293797     1.73200
Fe1317     Fe  0.63544477  0.79428872  0.24220460     1.54400
O1318       O  0.58716554  0.78900016  0.18095341    -0.81300
O1319       O  0.69845889  0.73706914  0.29762136    -0.79600
O1320       O  0.51147843  0.72480822  0.20268918    -0.83800
O1321       O  0.52810706  0.73123336  0.32018053    -0.78700
O1322       O  0.68638551  0.79936173  0.18502543    -0.80400
O1323       O  0.60860035  0.64118302  0.30602878    -0.83200
C1324       C  0.55285031  0.77778398  0.32617752     0.97600
C1325       C  0.53965698  0.76063712  0.17228789     1.05000
O1326       O  0.60182137  0.72203212  0.24862591    -1.12200
O1327       O  0.59154742  0.63563623  0.19113933    -0.74600
O1328       O  0.51630420  0.63549926  0.20081878    -0.78100
O1329       O  0.59032161  0.80484269  0.29657798    -0.78800
C1330       C  0.54444727  0.61996118  0.17923895     0.96500
O1331       O  0.53198379  0.63792665  0.31460285    -0.76700
O1332       O  0.68379331  0.72734219  0.17559697    -0.81900
C1333       C  0.70652917  0.77729647  0.32027919     0.99100
C1334       C  0.69777860  0.77085094  0.15960810     1.05000
O1335       O  0.68539927  0.80237017  0.30384354    -0.77600
C1336       C  0.56415095  0.62330083  0.32675125     1.03300
Fe1337     Fe  0.85826197  0.61069112  0.25191158     1.65800
Fe1338     Fe  0.74308780  0.50488970  0.25407789     1.73200
Fe1339     Fe  0.74544563  0.61627285  0.25491691     1.54400
O1340       O  0.79982369  0.67122493  0.30149259    -0.81300
O1341       O  0.70138266  0.50477350  0.19013262    -0.79600
O1342       O  0.86653328  0.65756684  0.31307138    -0.83800
O1343       O  0.86347697  0.66496855  0.19835128    -0.78700
O1344       O  0.70172423  0.57853384  0.32030542    -0.80400
O1345       O  0.79421850  0.49604870  0.20384710    -0.83200
C1346       C  0.83281204  0.67807635  0.17729676     0.97600
C1347       C  0.84343616  0.68253869  0.32114479     1.05000
O1348       O  0.78242569  0.57751385  0.25415312    -1.12200
O1349       O  0.78165446  0.49852935  0.31900205    -0.74600
O1350       O  0.86210182  0.55918691  0.30538505    -0.78100
O1351       O  0.78523620  0.65821934  0.18957999    -0.78800
C1352       C  0.82955807  0.51931298  0.32880588     0.96500
O1353       O  0.86000787  0.57027069  0.18891162    -0.76700
O1354       O  0.68417541  0.50132151  0.30261133    -0.81900
C1355       C  0.67482794  0.52675763  0.18461724     0.99100
C1356       C  0.67449558  0.53206120  0.32662843     1.05000
O1357       O  0.68530042  0.56655103  0.20861913    -0.77600
C1358       C  0.83570898  0.52472854  0.17946031     1.03300
C1359       C  0.79372734  0.79600527  0.04799373    -0.11900
C1360       C  0.81818985  0.84632808  0.03675488     0.05100
C1361       C  0.78136707  0.86447895  0.05565011    -0.07200
C1362       C  0.74326699  0.83871885  0.09484281    -0.07900
C1363       C  0.73041368  0.79168087  0.11119398    -0.02500
C1364       C  0.75154280  0.76831769  0.08170233     0.04300
N1365       N  0.72904806  0.71621754  0.08259741     0.66800
H1366       H  0.81079485  0.77804335  0.03273589     0.15700
H1367       H  0.72203908  0.85597225  0.11174726     0.15400
N1368       N  0.77362367  0.90443787  0.03751814     0.74500
O1369       O  0.69281375  0.69157832  0.05140673    -0.38900
O1370       O  0.75336412  0.69665266  0.10303540    -0.38900
O1371       O  0.73450051  0.89264097  0.00924541    -0.39600
O1372       O  0.78223720  0.93837097  0.06992549    -0.39600
C1373       C  0.78279015  0.78467437  0.37288924    -0.11900
C1374       C  0.74350907  0.79712056  0.36640941     0.05100
C1375       C  0.74800422  0.83640161  0.39836952    -0.07200
C1376       C  0.79056740  0.86024165  0.43298945    -0.07900
C1377       C  0.83275279  0.85043931  0.43811128    -0.02500
C1378       C  0.83090525  0.82313266  0.39005531     0.04300
N1379       N  0.85554894  0.85066926  0.34272145     0.66800
H1380       H  0.78339009  0.75793378  0.34563306     0.15700
H1381       H  0.79198822  0.88926885  0.45326194     0.15400
N1382       N  0.70956034  0.85182734  0.39770123     0.74500
O1383       O  0.87412564  0.83260092  0.31022888    -0.38900
O1384       O  0.83905778  0.87802557  0.32339767    -0.38900
O1385       O  0.66395287  0.82174636  0.41114496    -0.39600
O1386       O  0.72220839  0.89665388  0.39049722    -0.39600
C1387       C  0.84955846  0.97407390  0.46055382    -0.11900
C1388       C  0.88475662  0.95435318  0.45351949     0.05100
C1389       C  0.89476139  0.45206377  0.39783637    -0.07200
C1390       C  0.87745034  0.47400675  0.35826282    -0.07900
C1391       C  0.84721003  0.49623044  0.37030997    -0.02500
C1392       C  0.83216422  0.99463145  0.42146807     0.04300
N1393       N  0.80384637  0.01930949  0.43734073     0.66800
H1394       H  0.83359440  0.97590301  0.49676592     0.15700
H1395       H  0.88848695  0.47433183  0.31728312     0.15400
N1396       N  0.92886997  0.43421246  0.38119296     0.74500
O1397       O  0.75702890  0.99421612  0.45007875    -0.38900
O1398       O  0.82126078  0.56252351  0.44084397    -0.38900
O1399       O  0.93591441  0.90618699  0.41217359    -0.39600
O1400       O  0.94797537  0.44179972  0.33508418    -0.39600
C1401       C  0.85238040  0.95770958  0.14910352    -0.11900
C1402       C  0.85727429  0.50375917  0.13994917     0.05100
C1403       C  0.88573582  0.52918127  0.09550153    -0.07200
C1404       C  0.89981569  0.50441427  0.05766481    -0.07900
C1405       C  0.88915018  0.95264692  0.05934714    -0.02500
C1406       C  0.86959208  0.93297544  0.11378553     0.04300
N1407       N  0.87019477  0.89281994  0.14149242     0.66800
H1408       H  0.83588377  0.94068361  0.18702822     0.15700
H1409       H  0.91951573  0.52632036  0.02396453     0.15400
N1410       N  0.89941230  0.57982942  0.08643278     0.74500
O1411       O  0.89744466  0.90438556  0.18241649    -0.38900
O1412       O  0.82816632  0.85408864  0.14678688    -0.38900
O1413       O  0.92916669  0.61252421  0.11787347    -0.39600
O1414       O  0.89014496  0.59288577  0.04243296    -0.39600
C1415       C  0.50045368  0.53298102  0.14896749    -0.11900
C1416       C  0.52131897  0.58262553  0.13751929     0.05100
C1417       C  0.52396114  0.59638569  0.08536546    -0.07200
C1418       C  0.51009079  0.56123655  0.04588341    -0.07900
C1419       C  0.49144567  0.50903466  0.05298343    -0.02500
C1420       C  0.48714888  0.49697920  0.10857217     0.04300
N1421       N  0.98018126  0.45402369  0.12543942     0.66800
H1422       H  0.49778974  0.52247193  0.19020169     0.15700
H1423       H  0.51728403  0.57896259  0.00978494     0.15400
N1424       N  0.54275823  0.64685978  0.07094900     0.74500
O1425       O  0.99804559  0.45132219  0.16969798    -0.38900
O1426       O  0.95829583  0.91557246  0.09631694    -0.38900
O1427       O  0.58358388  0.66863057  0.04371506    -0.39600
O1428       O  0.51203354  0.66428586  0.07262703    -0.39600
C1429       C  0.49581922  0.54867050  0.37057153    -0.11900
C1430       C  0.54792971  0.58284290  0.36607180     0.05100
C1431       C  0.57917094  0.58399912  0.40788047    -0.07200
C1432       C  0.55662415  0.54802379  0.44846717    -0.07900
C1433       C  0.50234037  0.51293080  0.45366596    -0.02500
C1434       C  0.97852433  0.53501617  0.42062560     0.04300
N1435       N  0.97011836  0.57352620  0.44389040     0.66800
H1436       H  0.96951840  0.55273898  0.34104650     0.15700
H1437       H  0.58123376  0.55353850  0.47980101     0.15400
N1438       N  0.62773983  0.62677860  0.41682275     0.74500
O1439       O  0.92559320  0.56862990  0.44623239    -0.38900
O1440       O  0.00626798  0.11761050  0.43716303    -0.38900
O1441       O  0.62897907  0.66249540  0.44215450    -0.39600
O1442       O  0.66913027  0.62572948  0.40777079    -0.39600
C1443       C  0.60742148  0.95483429  0.14047600    -0.11900
C1444       C  0.63050058  0.50493748  0.14814313     0.05100
C1445       C  0.61684434  0.53256266  0.11579330    -0.07200
C1446       C  0.58094467  0.50871475  0.07532820    -0.07900
C1447       C  0.55843392  0.95684437  0.06032061    -0.02500
C1448       C  0.58258388  0.93368452  0.09233769     0.04300
N1449       N  0.60471050  0.90457400  0.07279996     0.66800
H1450       H  0.61970926  0.93424847  0.16592491     0.15700
H1451       H  0.57803400  0.53425347  0.05165504     0.15400
N1452       N  0.64580294  0.58541210  0.11630587     0.74500
O1453       O  0.64558738  0.92732643  0.04668372    -0.38900
O1454       O  0.60479221  0.87300295  0.10440385    -0.38900
O1455       O  0.69419553  0.60552291  0.11673969    -0.39600
O1456       O  0.62534458  0.61073230  0.10130844    -0.39600
C1457       C  0.55034919  0.95592691  0.40451021    -0.11900
C1458       C  0.56535758  0.96596071  0.45898466     0.05100
C1459       C  0.62215594  0.50177215  0.46413851    -0.07200
C1460       C  0.65274389  0.52304140  0.41903082    -0.07900
C1461       C  0.63480802  0.51285522  0.36882581    -0.02500
C1462       C  0.58328330  0.97708699  0.35990220     0.04300
N1463       N  0.56452537  0.95966275  0.30811783     0.66800
H1464       H  0.51508413  0.92540576  0.39481500     0.15700
H1465       H  0.69344958  0.54889678  0.42374612     0.15400
N1466       N  0.65257956  0.52865758  0.50870747     0.74500
O1467       O  0.56362487  0.92098366  0.29091584    -0.38900
O1468       O  0.54780689  0.98238943  0.27982398    -0.38900
O1469       O  0.68880234  0.52091443  0.52291447    -0.39600
O1470       O  0.66204098  0.57301086  0.51231191    -0.39600
C1471       C  0.56448552  0.85362196  0.37466467    -0.11900
C1472       C  0.53854191  0.80241861  0.36903706     0.05100
C1473       C  0.50302525  0.77609093  0.40834678    -0.07200
C1474       C  0.48938969  0.80192448  0.44526794    -0.07900
C1475       C  0.51116044  0.85332787  0.45247721    -0.02500
C1476       C  0.56060973  0.87489921  0.42300059     0.04300
N1477       N  0.61042530  0.89968497  0.44675142     0.66800
H1478       H  0.59802346  0.87447554  0.34973351     0.15700
H1479       H  0.96042873  0.78145193  0.47097229     0.15400
N1480       N  0.98388327  0.72405150  0.41234958     0.74500
O1481       O  0.64477004  0.93646602  0.42241384    -0.38900
O1482       O  0.62618455  0.87263438  0.46828570    -0.38900
O1483       O  0.51318013  0.70811213  0.42877749    -0.39600
O1484       O  0.94095722  0.69448238  0.39317424    -0.39600
C1485       C  0.52702176  0.81339560  0.04349248    -0.11900
C1486       C  0.49874105  0.83998913  0.05485203     0.05100
C1487       C  0.48194015  0.82906502  0.11108232    -0.07200
C1488       C  0.48042566  0.78844157  0.13883745    -0.07900
C1489       C  0.51576860  0.77285702  0.12743382    -0.02500
C1490       C  0.53709542  0.78295557  0.07705522     0.04300
N1491       N  0.57438270  0.76847316  0.06023280     0.66800
H1492       H  0.54949909  0.81965820  0.00957783     0.15700
H1493       H  0.46433042  0.78083542  0.17858925     0.15400
N1494       N  0.98473886  0.86347189  0.15046031     0.74500
O1495       O  0.57012960  0.74988665  0.01500738    -0.38900
O1496       O  0.61784491  0.78745794  0.08178556    -0.38900
O1497       O  0.94385501  0.85419734  0.17475995    -0.39600
O1498       O  0.02405987  0.87983371  0.17911634    -0.39600
C1499       C  0.83230884  0.71168930  0.40412054    -0.11900
C1500       C  0.86307943  0.72199538  0.36087367     0.05100
C1501       C  0.90456270  0.76974997  0.35492442    -0.07200
C1502       C  0.91397768  0.80541482  0.39545434    -0.07900
C1503       C  0.88852786  0.79405970  0.44662870    -0.02500
C1504       C  0.84167306  0.74463263  0.44500380     0.04300
N1505       N  0.79749126  0.72424223  0.47897801     0.66800
H1506       H  0.79791920  0.67575177  0.40625432     0.15700
H1507       H  0.94534228  0.84125817  0.38734258     0.15400
N1508       N  0.93672414  0.78334242  0.30805308     0.74500
O1509       O  0.78893556  0.68770782  0.50783860    -0.38900
O1510       O  0.75888720  0.72816536  0.46461855    -0.38900
O1511       O  0.96240095  0.82789717  0.29415698    -0.39600
O1512       O  0.94064176  0.75117651  0.28067813    -0.39600
C1513       C  0.87020808  0.70520203  0.08926072    -0.11900
C1514       C  0.85322589  0.71627815  0.13459695     0.05100
C1515       C  0.85649159  0.76271224  0.13816825    -0.07200
C1516       C  0.87771465  0.79743888  0.09542716    -0.07900
C1517       C  0.89239883  0.78776797  0.04511173    -0.02500
C1518       C  0.88913776  0.73721710  0.04550597     0.04300
N1519       N  0.90473967  0.71291482  0.00652837     0.66800
H1520       H  0.86843928  0.66924793  0.08746551     0.15700
H1521       H  0.88333307  0.83344272  0.10007222     0.15400
N1522       N  0.84079053  0.77539006  0.18657239     0.77500
O1523       O  0.94573906  0.71118045  0.51502050    -0.38900
O1524       O  0.87041321  0.67695194  0.48224380    -0.38900
O1525       O  0.79420885  0.76432386  0.19270944    -0.39600
O1526       O  0.86655943  0.77906802  0.22716278    -0.39600
C1527       C  0.91055674  0.83321812  0.49779516    -0.02100
C1528       C  0.98335251  0.86825788  0.00369966    -0.02100
C1529       C  0.51872956  0.93718282  0.00723949    -0.02100
C1530       C  0.97989917  0.46975810  0.50150593    -0.02100
C1531       C  0.90704863  0.93318722  0.00365697    -0.02100
C1532       C  0.87028545  0.86654523  0.99487216    -0.02100
Fe1533     Fe  0.52693044  0.68743622  0.75817021     1.65800
Fe1534     Fe  0.64264862  0.68927942  0.74252213     1.73200
Fe1535     Fe  0.63588391  0.79555104  0.74218405     1.54400
O1536       O  0.59086711  0.78987281  0.67787731    -0.81300
O1537       O  0.69935269  0.73998445  0.79493433    -0.79600
O1538       O  0.51357026  0.73184276  0.70515159    -0.83800
O1539       O  0.53102472  0.73090111  0.82205634    -0.78700
O1540       O  0.69117606  0.80191304  0.68884463    -0.80400
O1541       O  0.60897484  0.64457233  0.80733814    -0.83200
C1542       C  0.55283187  0.77758486  0.82578679     0.97600
C1543       C  0.54249829  0.76453821  0.67181821     1.05000
O1544       O  0.60171013  0.72354511  0.74806396    -1.12200
O1545       O  0.58829603  0.63487745  0.69385768    -0.74600
O1546       O  0.51624078  0.64149261  0.69608941    -0.78100
O1547       O  0.58684803  0.80518536  0.79292828    -0.78800
C1548       C  0.54260153  0.62222057  0.67871338     0.96500
O1549       O  0.52982282  0.63598521  0.80923672    -0.76700
O1550       O  0.67970445  0.72716195  0.67331148    -0.81900
C1551       C  0.70526749  0.77825886  0.82058078     0.99100
C1552       C  0.69789153  0.77207809  0.66009231     1.05000
O1553       O  0.68208225  0.80226716  0.80682501    -0.77600
C1554       C  0.56297190  0.62363485  0.82450429     1.03300
Fe1555     Fe  0.85960919  0.61059561  0.75082269     1.65800
Fe1556     Fe  0.74428394  0.50558539  0.75485885     1.73200
Fe1557     Fe  0.74703527  0.61678245  0.75426266     1.54400
O1558       O  0.80187408  0.67165666  0.80081982    -0.81300
O1559       O  0.70474644  0.50559134  0.68971034    -0.79600
O1560       O  0.86870589  0.65789377  0.81204606    -0.83800
O1561       O  0.86528154  0.66532833  0.69771496    -0.78700
O1562       O  0.70237727  0.57936938  0.81962161    -0.80400
O1563       O  0.79605204  0.49589124  0.70610136    -0.83200
C1564       C  0.83465815  0.67853380  0.67679719     0.97600
C1565       C  0.84567087  0.68299231  0.82022068     1.05000
O1566       O  0.78384745  0.57803200  0.75405630    -1.12200
O1567       O  0.78167985  0.50024815  0.82087870    -0.74600
O1568       O  0.86278824  0.55821403  0.80407263    -0.78100
O1569       O  0.78707188  0.65854918  0.68897211    -0.78800
C1570       C  0.82974869  0.51950264  0.82909124     0.96500
O1571       O  0.86008425  0.57012025  0.68696233    -0.76700
O1572       O  0.68382598  0.50207775  0.80162282    -0.81900
C1573       C  0.67778302  0.52699140  0.68354369     0.99100
C1574       C  0.67390975  0.53290247  0.82523025     1.05000
O1575       O  0.68728499  0.56659817  0.70758459    -0.77600
C1576       C  0.83613870  0.52419154  0.67938612     1.03300
C1577       C  0.79429904  0.79661795  0.54929011    -0.11900
C1578       C  0.81812167  0.84668260  0.53626774     0.05100
C1579       C  0.78085540  0.86464408  0.55432358    -0.07200
C1580       C  0.74303535  0.83946720  0.59417361    -0.07900
C1581       C  0.73011832  0.79256291  0.61122596    -0.02500
C1582       C  0.75157508  0.76904916  0.58251345     0.04300
N1583       N  0.72968546  0.71696102  0.58476564     0.66800
H1584       H  0.81174540  0.77841518  0.53586021     0.15700
H1585       H  0.72190442  0.85686637  0.61095139     0.15400
N1586       N  0.77307126  0.90433097  0.53529878     0.74500
O1587       O  0.69275658  0.69106350  0.55482446    -0.38900
O1588       O  0.75401116  0.69807980  0.60664632    -0.38900
O1589       O  0.73434300  0.89227080  0.50633388    -0.39600
O1590       O  0.78106256  0.93834897  0.56736933    -0.39600
C1591       C  0.78126038  0.78418897  0.87293873    -0.11900
C1592       C  0.74231184  0.79718960  0.86679950     0.05100
C1593       C  0.74687785  0.83586351  0.89971587    -0.07200
C1594       C  0.78952461  0.85917158  0.93421343    -0.07900
C1595       C  0.83192582  0.84958468  0.93854833    -0.02500
C1596       C  0.82963242  0.82209505  0.89041844     0.04300
N1597       N  0.85471404  0.84940028  0.84311886     0.66800
H1598       H  0.78151946  0.75738482  0.84553409     0.15700
H1599       H  0.79050616  0.88735217  0.95565293     0.15400
N1600       N  0.70783029  0.85050522  0.90096694     0.74500
O1601       O  0.87216737  0.83041540  0.81047764    -0.38900
O1602       O  0.83870672  0.87708518  0.82368946    -0.38900
O1603       O  0.66288444  0.81989611  0.91585345    -0.39600
O1604       O  0.71960059  0.89522036  0.89466015    -0.39600
C1605       C  0.84812304  0.97228664  0.96122366    -0.11900
C1606       C  0.88370374  0.95306304  0.95410379     0.05100
C1607       C  0.89488651  0.45223164  0.89840140    -0.07200
C1608       C  0.87784989  0.47432619  0.85866793    -0.07900
C1609       C  0.84682938  0.49581244  0.87043595    -0.02500
C1610       C  0.82932993  0.99139549  0.92179880     0.04300
N1611       N  0.79757970  0.01280217  0.93698202     0.66800
H1612       H  0.83339516  0.97515817  0.99778707     0.15700
H1613       H  0.88951499  0.47516142  0.81783397     0.15400
N1614       N  0.92956616  0.43487648  0.88221300     0.74500
O1615       O  0.75847405  0.98863775  0.96589433    -0.38900
O1616       O  0.81778406  0.55631801  0.95526959    -0.38900
O1617       O  0.93597476  0.90614442  0.91321078    -0.39600
O1618       O  0.94902415  0.44275050  0.83624759    -0.39600
C1619       C  0.85048894  0.95634084  0.64828570    -0.11900
C1620       C  0.85656812  0.50249310  0.63936369     0.05100
C1621       C  0.88530439  0.52793329  0.59513889    -0.07200
C1622       C  0.90115179  0.50402735  0.55801775    -0.07900
C1623       C  0.88871365  0.95291482  0.55888399    -0.02500
C1624       C  0.86863182  0.93251136  0.61295158     0.04300
N1625       N  0.86983154  0.89259156  0.64052840     0.66800
H1626       H  0.83418465  0.93900999  0.68616139     0.15700
H1627       H  0.92143372  0.52627640  0.52484743     0.15400
N1628       N  0.89560831  0.57724771  0.58454135     0.74500
O1629       O  0.89714848  0.90432492  0.68140397    -0.38900
O1630       O  0.82803419  0.85364431  0.64590602    -0.38900
O1631       O  0.93108244  0.61283401  0.60861687    -0.39600
O1632       O  0.87142988  0.58550905  0.54865613    -0.39600
C1633       C  0.49992900  0.53503207  0.64964894    -0.11900
C1634       C  0.51951816  0.58441931  0.63770649     0.05100
C1635       C  0.52277598  0.59789990  0.58551397    -0.07200
C1636       C  0.51172200  0.56289673  0.54633919    -0.07900
C1637       C  0.49234978  0.51050062  0.55390946    -0.02500
C1638       C  0.48755483  0.49890252  0.60962353     0.04300
N1639       N  0.97989816  0.45246122  0.62431634     0.66800
H1640       H  0.49735402  0.52486934  0.69099728     0.15700
H1641       H  0.52327197  0.58132411  0.51055047     0.15400
N1642       N  0.54138081  0.64834520  0.57094309     0.74500
O1643       O  0.99748195  0.44926929  0.66856614    -0.38900
O1644       O  0.95820785  0.91587129  0.59600163    -0.38900
O1645       O  0.58656480  0.67309576  0.55291012    -0.39600
O1646       O  0.50948196  0.66388413  0.56438178    -0.39600
C1647       C  0.49537407  0.54755441  0.86810199    -0.11900
C1648       C  0.54694836  0.58369516  0.86472874     0.05100
C1649       C  0.57767220  0.58674489  0.90807962    -0.07200
C1650       C  0.55571057  0.54934843  0.94774398    -0.07900
C1651       C  0.50153960  0.51268057  0.95217876    -0.02500
C1652       C  0.97852107  0.53501361  0.91949996     0.04300
N1653       N  0.96877960  0.57354287  0.94032364     0.66800
H1654       H  0.97212687  0.55033102  0.83829504     0.15700
H1655       H  0.58064436  0.55554547  0.97880813     0.15400
N1656       N  0.62525727  0.63102796  0.91812960     0.74500
O1657       O  0.92385150  0.56744229  0.94319819    -0.38900
O1658       O  0.00250233  0.11638440  0.94328789    -0.38900
O1659       O  0.62786328  0.67268316  0.91147891    -0.39600
O1660       O  0.66050772  0.62895443  0.94363245    -0.39600
C1661       C  0.60731663  0.95577809  0.63883652    -0.11900
C1662       C  0.63411312  0.50449579  0.64643204     0.05100
C1663       C  0.61740679  0.53160586  0.61708894    -0.07200
C1664       C  0.58047300  0.50768082  0.57767155    -0.07900
C1665       C  0.55909252  0.95964432  0.55942353    -0.02500
C1666       C  0.58363866  0.93615840  0.58986303     0.04300
N1667       N  0.60880729  0.91090182  0.56716815     0.66800
H1668       H  0.61934919  0.93449446  0.66348021     0.15700
H1669       H  0.57754312  0.53363923  0.55415476     0.15400
N1670       N  0.64537991  0.58454477  0.61791905     0.74500
O1671       O  0.64663156  0.93601909  0.53777116    -0.38900
O1672       O  0.61412511  0.88056306  0.59642531    -0.38900
O1673       O  0.69381269  0.60561918  0.61560462    -0.39600
O1674       O  0.62329080  0.60920399  0.60592325    -0.39600
C1675       C  0.54923289  0.95266062  0.90503350    -0.11900
C1676       C  0.56418907  0.96249267  0.95954625     0.05100
C1677       C  0.61962406  0.50343802  0.96161919    -0.07200
C1678       C  0.64846820  0.52820561  0.91643621    -0.07900
C1679       C  0.63245208  0.51389818  0.86631064    -0.02500
C1680       C  0.58234590  0.97402670  0.86060349     0.04300
N1681       N  0.56406229  0.95626821  0.80879286     0.66800
H1682       H  0.51403031  0.92205983  0.89522416     0.15700
H1683       H  0.68809787  0.55701303  0.92110764     0.15400
N1684       N  0.65288288  0.52404860  0.00607014     0.74500
O1685       O  0.56294834  0.91726069  0.79237921    -0.38900
O1686       O  0.54748091  0.97872715  0.77990473    -0.38900
O1687       O  0.68961761  0.51451973  0.00992765    -0.39600
O1688       O  0.66487778  0.56816706  0.01647674    -0.39600
C1689       C  0.56582446  0.85237536  0.87691308    -0.11900
C1690       C  0.53868418  0.80149360  0.86934656     0.05100
C1691       C  0.50182228  0.77458175  0.90737321    -0.07200
C1692       C  0.48776103  0.79995922  0.94425039    -0.07900
C1693       C  0.51031250  0.85116728  0.95305083    -0.02500
C1694       C  0.56081293  0.87258898  0.92552912     0.04300
N1695       N  0.60983371  0.89684720  0.95098599     0.66800
H1696       H  0.60034034  0.87322104  0.85327493     0.15700
H1697       H  0.95949614  0.78025712  0.97101190     0.15400
N1698       N  0.98368240  0.72252865  0.91354739     0.74500
O1699       O  0.64521431  0.93339195  0.92725807    -0.38900
O1700       O  0.62433296  0.86912468  0.97315095    -0.38900
O1701       O  0.50907301  0.70551249  0.93026430    -0.39600
O1702       O  0.94062842  0.69213474  0.89527276    -0.39600
C1703       C  0.53061716  0.81870763  0.54364437    -0.11900
C1704       C  0.50065503  0.84356360  0.55464173     0.05100
C1705       C  0.48315840  0.83176438  0.61057880    -0.07200
C1706       C  0.48214655  0.79116489  0.63789508    -0.07900
C1707       C  0.51895715  0.77727342  0.62700759    -0.02500
C1708       C  0.54103695  0.78850148  0.57705635     0.04300
N1709       N  0.57785597  0.77364133  0.55980190     0.66800
H1710       H  0.55350540  0.82593591  0.50987918     0.15700
H1711       H  0.46531179  0.78268179  0.67734301     0.15400
N1712       N  0.98613856  0.86506208  0.65084427     0.74500
O1713       O  0.57091023  0.75194500  0.51608921    -0.38900
O1714       O  0.62296757  0.79574363  0.57745484    -0.38900
O1715       O  0.94531974  0.85551439  0.67546088    -0.39600
O1716       O  0.02575778  0.88219455  0.67910470    -0.39600
C1717       C  0.83407208  0.71095148  0.90360980    -0.11900
C1718       C  0.86506471  0.72216242  0.86036060     0.05100
C1719       C  0.90566632  0.77051739  0.85473575    -0.07200
C1720       C  0.91389325  0.80561500  0.89548509    -0.07900
C1721       C  0.88820154  0.79353900  0.94642762    -0.02500
C1722       C  0.84215457  0.74360452  0.94448664     0.04300
N1723       N  0.79742150  0.72253509  0.97778021     0.66800
H1724       H  0.80026223  0.67458661  0.90554410     0.15700
H1725       H  0.94490478  0.84161592  0.88778748     0.15400
N1726       N  0.93828013  0.78543308  0.80816021     0.74500
O1727       O  0.78861586  0.68570666  0.00624345    -0.38900
O1728       O  0.75888417  0.72626773  0.96281289    -0.38900
O1729       O  0.96398395  0.83041818  0.79559026    -0.39600
O1730       O  0.94296279  0.75404761  0.78011701    -0.39600
C1731       C  0.87178834  0.70602915  0.58877269    -0.11900
C1732       C  0.85506761  0.71697221  0.63434331     0.05100
C1733       C  0.85841232  0.76342673  0.63829276    -0.07200
C1734       C  0.87943645  0.79827182  0.59566062    -0.07900
C1735       C  0.89353440  0.78861609  0.54503945    -0.02500
C1736       C  0.89026686  0.73807359  0.54503356     0.04300
N1737       N  0.90523696  0.71372309  0.50550783     0.66800
H1738       H  0.86995296  0.67007309  0.58668745     0.15700
H1739       H  0.88492568  0.83416901  0.60046378     0.15400
N1740       N  0.84310132  0.77603472  0.68697478     0.77500
O1741       O  0.94546328  0.71096263  0.01653690    -0.38900
O1742       O  0.87033882  0.67578931  0.98331858    -0.38900
O1743       O  0.79676584  0.76582761  0.69330052    -0.39600
O1744       O  0.86874047  0.77885606  0.72739590    -0.39600
loop_ 
_geom_bond_atom_site_label_1 
_geom_bond_atom_site_label_2 
_geom_bond_distance 
_geom_bond_site_symmetry_2 
_ccdc_geom_bond_type 
C1          C209   1.704   1_556  S
C1          C413   1.682       .  S
C1          C220   1.923   1_556  S
C1          C224   1.917       .  S
C2         C1039   1.706       .  S
C2         C1268   1.739       .  S
C2          C219   1.916       .  S
C2          C875   1.878       .  S
C3          C150   1.689       .  S
C3          C357   1.704       .  S
C3          C874   1.877   1_455  S
C3         C1530   1.883   1_455  S
C4          C983   1.671   1_565  S
C4         C1215   1.724   1_564  S
C4         C1529   1.884       .  S
C4          C659   1.867       .  S
C5           C80   1.687       .  S
C5          C315   1.709       .  S
C5            C6   1.825       .  S
C5          C658   1.866       .  S
C6           C69   1.749       .  S
C6          C270   1.722       .  S
C6          C219   1.916       .  S
Fe7          O23   2.088       .  S
Fe7          O13   2.082       .  S
Fe7          O20   2.047       .  S
Fe7          O12   2.095       .  S
Fe7          O18   1.958       .  S
Fe8          O11   2.133       .  S
Fe8          O15   2.059       .  S
Fe8          O19   2.092       .  S
Fe8          O24   2.082       .  S
Fe8          O18   1.967       .  S
Fe9          O27   2.088       .  S
Fe9          O14   2.050       .  S
Fe9          O21   2.055       .  S
Fe9          O10   2.067       .  S
Fe9          O18   1.957       .  S
O10          C17   1.272       .  A
O11          C25   1.286       .  A
O12          C17   1.274       .  A
O13          C16   1.274       .  A
O14          C26   1.264       .  A
O15          C28   1.266       .  A
C16          O21   1.263       .  A
C16         C164   1.497       .  S
C17         C181   1.488       .  S
O19          C22   1.277       .  A
O20          C22   1.264       .  A
C22         C108   1.470       .  S
O23          C28   1.277       .  A
O24          C26   1.265       .  A
C25          O27   1.278       .  A
C25          C66   1.523       .  S
C26          C55   1.494       .  S
C28         C122   1.488       .  S
Fe29         O45   2.049       .  S
Fe29         O35   2.101       .  S
Fe29         O42   2.137       .  S
Fe29         O34   2.063       .  S
Fe29         O40   1.972       .  S
Fe30         O33   2.037       .  S
Fe30         O37   2.084   1_545  S
Fe30         O41   2.061   1_545  S
Fe30         O46   2.087       .  S
Fe30         O40   1.970       .  S
Fe31         O49   2.086       .  S
Fe31         O36   2.075       .  S
Fe31         O43   2.074       .  S
Fe31         O32   2.073       .  S
Fe31         O40   1.970       .  S
O32          C39   1.273       .  A
O33          C47   1.269       .  A
O34          C39   1.270       .  A
O35          C38   1.279       .  A
O36          C48   1.276       .  A
O37          C50   1.272   1_565  A
C38          O43   1.274       .  A
C38         C206   1.492       .  S
C39         C192   1.476       .  S
O41          C44   1.271   1_565  A
O42          C44   1.285       .  A
C44          C83   1.498   1_545  S
O45          C50   1.262       .  A
O46          C48   1.270       .  A
C47          O49   1.273       .  A
C47         C136   1.484       .  S
C48         C153   1.483       .  S
C50          C94   1.490       .  S
C51          C52   1.394       .  A
C51          C56   1.406       .  A
C51          H58   0.989       .  S
C52         C224   1.721   1_554  S
C52          C53   1.524       .  A
C53          C54   1.418       .  A
C53          N60   1.435       .  S
C54          C55   1.374       .  A
C54          H59   1.086       .  S
C55          C56   1.377       .  A
C56          N57   1.418       .  S
N57          O61   1.260       .  A
N57          O62   1.255       .  A
N60          O64   1.259       .  A
N60          O63   1.265       .  A
C65          C66   1.400       .  A
C65          C70   1.422       .  A
C65          H72   1.084       .  S
C66          C67   1.410       .  A
C67          C68   1.422       .  A
C67          N74   1.426       .  S
C68          C69   1.423       .  A
C68          H73   1.017       .  S
C69          C70   1.472       .  A
C70          N71   1.441       .  S
N71          O75   1.257       .  A
N71          O76   1.262       .  A
N74          O78   1.262       .  A
N74          O77   1.261       .  A
C79          C80   1.447       .  A
C79          C84   1.403       .  A
C79          H86   1.042       .  S
C80         C517   1.449       .  A
C81          C82   1.438       .  A
C81         C516   1.451       .  A
C81          N88   1.424       .  S
C82          C83   1.396       .  A
C82          H87   1.083       .  S
C83         C520   1.383       .  A
C84         C519   1.384       .  A
C84          N85   1.431       .  S
N85          O89   1.259       .  A
N85         O526   1.262       .  A
N88          O92   1.263       .  A
N88         O527   1.247       .  A
O90         N521   1.262       .  A
O91         N524   1.247       .  A
C93          C98   1.414       .  A
C93         C530   1.375       .  A
C93         H100   1.087       .  S
C94          C95   1.393       .  A
C94         C529   1.378   1_545  A
C95          C96   1.407       .  A
C95         N102   1.433       .  S
C96         C533   1.444   1_545  A
C96         H101   1.067       .  S
C97         C223   1.708       .  S
C97          C98   1.501       .  A
C97         C532   1.444       .  A
C98          N99   1.433       .  S
N99         O103   1.260       .  A
N99         O104   1.252       .  A
N102        O106   1.261       .  A
N102        O105   1.261       .  A
C107        C108   1.381       .  A
C107        C112   1.422   1_445  A
C107        H114   1.084   1_455  S
C108        C109   1.378       .  A
C109        C110   1.388       .  A
C109        N116   1.431       .  S
C110        C111   1.446   1_455  A
C110        H115   1.032       .  S
C111        C876   1.675   1_545  S
C111        C112   1.441   1_545  A
C112        N985   1.400       .  S
N113        C984   1.402       .  S
N113        O117   1.263       .  A
N113        O554   1.258       .  A
N116        O120   1.259       .  A
N116        O119   1.261       .  A
O118        N549   1.258       .  A
C121        C122   1.397   1_655  A
C121        C998   1.409       .  A
C121       H1000   1.082       .  S
C122        C123   1.405       .  A
C123        C124   1.420       .  A
C123        N130   1.433       .  S
C124        C125   1.455       .  A
C124        H129   1.043       .  S
C125       C1094   1.718   1_445  S
C125        C998   1.459   1_455  A
C126        C993   1.405       .  A
C126        C997   1.467       .  A
C126        N127   1.453       .  S
N127        O131   1.254       .  A
N127        O568   1.264       .  A
H128        C993   1.082       .  S
N130        O134   1.261       .  A
N130        O133   1.262       .  A
O132        N563   1.265       .  A
C135        C140   1.417       .  A
C135        C572   1.374       .  A
C135        H142   1.084       .  S
C136        C137   1.376       .  A
C136        C571   1.369   1_545  A
C137        C138   1.409       .  A
C137        N144   1.434       .  S
C138        C575   1.436   1_545  A
C138        H143   1.094       .  S
C139        C221   1.698       .  S
C139        C140   1.472       .  A
C139        C574   1.436       .  A
C140        N141   1.430       .  S
N141        O145   1.249       .  A
N141        O146   1.264       .  A
N144        O148   1.257       .  A
N144        O147   1.261       .  A
C149        C150   1.442       .  A
C149        C154   1.424       .  A
C149        H156   1.051       .  S
C150        C587   1.511       .  A
C151        C152   1.404       .  A
C151        C586   1.514   1_545  A
C151        N158   1.437       .  S
C152        C153   1.358       .  A
C152        H157   1.089       .  S
C153        C590   1.398   1_545  A
C154        C589   1.398       .  A
C154        N155   1.428       .  S
N155        O159   1.260       .  A
N155        O160   1.261       .  A
N158        O162   1.264       .  A
N158        O161   1.260       .  A
C163        C164   1.398       .  A
C163        C168   1.420       .  A
C163        H170   1.084       .  S
C164        C165   1.386       .  A
C165        C166   1.404   1_455  A
C165       N1044   1.427   1_455  S
C166        C167   1.410   1_655  A
C166       H1043   1.002       .  S
C167        C874   1.711   1_455  S
C167        C168   1.479       .  A
C168        N169   1.437       .  S
N169        O173   1.259       .  A
N169        O174   1.260       .  A
H171       C1038   1.004       .  S
N172       C1037   1.427       .  S
N172        O176   1.260       .  A
N172       O1047   1.261       .  A
O175       N1044   1.260   1_455  A
C177        C178   1.446       .  A
C177        C182   1.402       .  A
C177        H184   1.039       .  S
C178       C1092   1.741   1_455  S
C178        C179   1.485   1_455  A
C179        C180   1.422       .  A
C179       N1058   1.420       .  S
C180        C181   1.377   1_655  A
C180        H185   1.085       .  S
C181        C182   1.386       .  A
C182        N183   1.437       .  S
N183        O187   1.261       .  A
N183        O188   1.260       .  A
N186       C1051   1.421       .  S
N186        O190   1.261       .  A
N186        O189   1.257       .  A
C191        C192   1.356       .  A
C191        C196   1.387       .  A
C191        H198   1.090       .  S
C192        C193   1.406       .  A
C193        C194   1.435       .  A
C193        N200   1.446       .  S
C194        C195   1.450       .  A
C194        H199   1.067       .  S
C195        C219   1.685       .  S
C195        C196   1.489       .  A
C196        N197   1.426       .  S
N197        O201   1.263       .  A
N197        O202   1.262       .  A
N200        O204   1.262       .  A
N200        O203   1.262       .  A
C205        C206   1.358       .  A
C205        C210   1.405       .  A
C205        H212   1.088       .  S
C206        C207   1.395       .  A
C207        C208   1.434       .  A
C207        N214   1.429       .  S
C208        C209   1.422       .  A
C208        H213   1.046       .  S
C209        C210   1.516       .  A
C210        N211   1.439       .  S
N211        O433   1.264       .  A
N211        O434   1.262   1_554  A
N214        O218   1.259       .  A
N214        O217   1.260       .  A
O215        N429   1.265       .  A
O216        N429   1.262       .  A
C219        C427   1.701       .  S
C220       C1257   1.708   1_554  S
C220       C1050   1.732       .  S
C220       C1093   1.878       .  S
C221        C368   1.692   1_554  S
C221       C1092   1.878   1_455  S
C221       C1312   1.881   1_455  S
C222       C1201   1.672   1_565  S
C222        C997   1.718   1_565  S
C222       C1311   1.882       .  S
C222        C441   1.864       .  S
C223        C298   1.688   1_554  S
C223        C440   1.868       .  S
C223        C224   1.823   1_554  S
C224        C287   1.751       .  S
Fe225       O241   2.066       .  S
Fe225       O231   2.079       .  S
Fe225       O238   2.047       .  S
Fe225       O230   2.073       .  S
Fe225       O236   1.976       .  S
Fe226       O229   2.130       .  S
Fe226       O233   2.056       .  S
Fe226       O237   2.080       .  S
Fe226       O242   2.085       .  S
Fe226       O236   1.976       .  S
Fe227       O245   2.103       .  S
Fe227       O232   2.040       .  S
Fe227       O239   2.041       .  S
Fe227       O228   2.074       .  S
Fe227       O236   1.965       .  S
O228        C235   1.274       .  A
O229        C243   1.285       .  A
O230        C235   1.269       .  A
O231        C234   1.272       .  A
O232        C244   1.260       .  A
O233        C246   1.266       .  A
C234        O239   1.259       .  A
C234        C382   1.492       .  S
C235        C399   1.483       .  S
O237        C240   1.275       .  A
O238        C240   1.263       .  A
C240        C326   1.467       .  S
O241        C246   1.273       .  A
O242        C244   1.266       .  A
C243        O245   1.281       .  A
C243        C284   1.526       .  S
C244        C273   1.496       .  S
C246        C340   1.479       .  S
Fe247       O263   2.049       .  S
Fe247       O253   2.099       .  S
Fe247       O260   2.144       .  S
Fe247       O252   2.061       .  S
Fe247       O258   1.970       .  S
Fe248       O251   2.031       .  S
Fe248       O255   2.082   1_545  S
Fe248       O259   2.067   1_545  S
Fe248       O264   2.089       .  S
Fe248       O258   1.968       .  S
Fe249       O267   2.080       .  S
Fe249       O254   2.079       .  S
Fe249       O261   2.075       .  S
Fe249       O250   2.072       .  S
Fe249       O258   1.971       .  S
O250        C257   1.274       .  A
O251        C265   1.268       .  A
O252        C257   1.271       .  A
O253        C256   1.277       .  A
O254        C266   1.278       .  A
O255        C268   1.271   1_565  A
C256        O261   1.273       .  A
C256        C424   1.492       .  S
C257        C410   1.475       .  S
O259        C262   1.273   1_565  A
O260        C262   1.287       .  A
C262        C301   1.504   1_545  S
O263        C268   1.262       .  A
O264        C266   1.270       .  A
C265        O267   1.272       .  A
C265        C354   1.479       .  S
C266        C371   1.486       .  S
C268        C312   1.487       .  S
C269        C270   1.399       .  A
C269        C274   1.405       .  A
C269        H276   0.990       .  S
C270        C271   1.524       .  A
C271        C272   1.420       .  A
C271        N278   1.436       .  S
C272        C273   1.375       .  A
C272        H277   1.086       .  S
C273        C274   1.375       .  A
C274        N275   1.417       .  S
N275        O279   1.261       .  A
N275        O280   1.255       .  A
N278        O282   1.259       .  A
N278        O281   1.265       .  A
C283        C284   1.401       .  A
C283        C288   1.425       .  A
C283        H290   1.084       .  S
C284        C285   1.408       .  A
C285        C286   1.423       .  A
C285        N292   1.425       .  S
C286        C287   1.425       .  A
C286        H291   1.018       .  S
C287        C288   1.471       .  A
C288        N289   1.440       .  S
N289        O293   1.257       .  A
N289        O294   1.262       .  A
N292        O296   1.262       .  A
N292        O295   1.262       .  A
C297        C298   1.447       .  A
C297        C302   1.404       .  A
C297        H304   1.042       .  S
C298        C735   1.449       .  A
C299        C734   1.452       .  A
C299        C300   1.441       .  A
C299        N306   1.424       .  S
C300        C301   1.398       .  A
C300        H305   1.083       .  S
C301        C738   1.384       .  A
C302        C737   1.386       .  A
C302        N303   1.433       .  S
N303        O307   1.260       .  A
N303        O744   1.262       .  A
N306        O310   1.264       .  A
N306        O745   1.247       .  A
O308        N739   1.262       .  A
O309        N742   1.247       .  A
C311        C748   1.375       .  A
C311        C316   1.416       .  A
C311        H318   1.087       .  S
C312        C747   1.378   1_545  A
C312        C313   1.389       .  A
C313        C314   1.402       .  A
C313        N320   1.429       .  S
C314        C751   1.440   1_545  A
C314        H319   1.062       .  S
C315        C750   1.444       .  A
C315        C316   1.499       .  A
C316        N317   1.431       .  S
N317        O321   1.260       .  A
N317        O322   1.252       .  A
N320        O324   1.261       .  A
N320        O323   1.261       .  A
C325        C326   1.378   1_655  A
C325        C330   1.419   1_545  A
C325        H332   1.084       .  S
C326        C327   1.376       .  A
C327        C328   1.390       .  A
C327        N334   1.429       .  S
C328        C329   1.448   1_455  A
C328        H333   1.037       .  S
C329       C1094   1.671   1_545  S
C329        C330   1.442   1_545  A
C330       N1203   1.400       .  S
N331       C1202   1.401   1_565  S
N331        O335   1.263       .  A
N331        O772   1.258       .  A
N334        O338   1.259       .  A
N334        O337   1.261       .  A
O336        N767   1.257       .  A
C339        C340   1.394   1_655  A
C339       C1216   1.406       .  A
C339       H1218   1.083       .  S
C340        C341   1.404       .  A
C341        C342   1.419       .  A
C341        N348   1.444       .  S
C342        C343   1.453       .  A
C342        H347   1.098       .  S
C343        C876   1.718   1_446  S
C343       C1216   1.465   1_455  A
C344       C1211   1.408       .  A
C344       C1215   1.462       .  A
C344        N345   1.453       .  S
N345        O349   1.253       .  A
N345        O786   1.265       .  A
H346       C1211   1.082       .  S
N348        O352   1.260       .  A
N348        O351   1.263       .  A
O350        N781   1.264       .  A
C353        C790   1.366       .  A
C353        C358   1.418       .  A
C353        H360   1.085       .  S
C354        C789   1.370   1_545  A
C354        C355   1.376       .  A
C355        C356   1.408       .  A
C355        N362   1.435       .  S
C356        C793   1.437   1_545  A
C356        H361   1.034       .  S
C357        C792   1.440       .  A
C357        C358   1.475       .  A
C358        N359   1.428       .  S
N359        O363   1.250       .  A
N359        O364   1.262       .  A
N362        O366   1.257       .  A
N362        O365   1.260       .  A
C367        C368   1.439       .  A
C367        C372   1.420       .  A
C367        H374   1.047       .  S
C368        C805   1.519       .  A
C369        C804   1.512   1_545  A
C369        C370   1.405       .  A
C369        N376   1.435   1_556  S
C370        C371   1.355       .  A
C370        H375   1.089       .  S
C371        C808   1.398   1_545  A
C372        C807   1.396       .  A
C372        N373   1.430       .  S
N373        O377   1.260       .  A
N373        O378   1.262       .  A
N376        O380   1.262       .  A
N376        O379   1.260       .  A
C381        C382   1.398       .  A
C381        C386   1.416       .  A
C381        H388   1.084       .  S
C382        C383   1.387       .  A
C383        C384   1.405   1_455  A
C383       N1262   1.428   1_455  S
C384        C385   1.409   1_655  A
C384       H1261   1.002       .  S
C385       C1092   1.706   1_456  S
C385        C386   1.472       .  A
C386        N387   1.433       .  S
N387        O391   1.258       .  A
N387        O392   1.261       .  A
H389       C1256   1.002       .  S
N390       C1255   1.428       .  S
N390        O394   1.259       .  A
N390       O1265   1.260       .  A
O393       N1262   1.260   1_455  A
C395        C396   1.453   1_455  A
C395        C400   1.402       .  A
C395        H402   1.037       .  S
C396        C874   1.734       .  S
C396        C397   1.487       .  A
C397        C398   1.418       .  A
C397       N1276   1.423       .  S
C398        C399   1.375   1_655  A
C398        H403   1.086       .  S
C399        C400   1.387       .  A
C400        N401   1.438       .  S
N401        O405   1.262       .  A
N401        O406   1.260       .  A
N404       C1269   1.419       .  S
N404        O408   1.260       .  A
N404        O407   1.258       .  A
C409        C410   1.354       .  A
C409        C414   1.385       .  A
C409        H416   1.090       .  S
C410        C411   1.406       .  A
C411        C412   1.433       .  A
C411        N418   1.445       .  S
C412        C413   1.446       .  A
C412        H417   1.066       .  S
C413        C414   1.490       .  A
C414        N415   1.426       .  S
N415        O419   1.262   1_556  A
N415        O420   1.262       .  A
N418        O422   1.262       .  A
N418        O421   1.263       .  A
C423        C424   1.357       .  A
C423        C428   1.404       .  A
C423        H430   1.088       .  S
C424        C425   1.394       .  A
C425        C426   1.433       .  A
C425        N432   1.427       .  S
C426        C427   1.422       .  A
C426        H431   1.047       .  S
C427        C428   1.516       .  A
C428        N429   1.441       .  S
N432        O436   1.258       .  A
N432        O435   1.261       .  A
C437        C849   1.678       .  S
C437        C645   1.706   1_556  S
C437        C656   1.920   1_556  S
C437        C660   1.924       .  S
C438       C1475   1.711       .  S
C438       C1704   1.739       .  S
C438        C655   1.922       .  S
C438       C1311   1.879       .  S
C439        C793   1.695       .  S
C439        C586   1.691       .  S
C439       C1310   1.876   1_455  S
C439       C1094   1.882   1_455  S
C440       C1419   1.673       .  S
C440       C1651   1.724   1_554  S
C440       C1093   1.880       .  S
C441        C516   1.683       .  S
C441        C751   1.710       .  S
C441        C442   1.827       .  S
C442        C706   1.715       .  S
C442        C505   1.753       .  S
C442        C655   1.922       .  S
Fe443       O459   2.072       .  S
Fe443       O449   2.081       .  S
Fe443       O456   2.048       .  S
Fe443       O448   2.072       .  S
Fe443       O454   1.979       .  S
Fe444       O447   2.122       .  S
Fe444       O451   2.069       .  S
Fe444       O455   2.075       .  S
Fe444       O460   2.085       .  S
Fe444       O454   1.979       .  S
Fe445       O463   2.096       .  S
Fe445       O450   2.037       .  S
Fe445       O457   2.041       .  S
Fe445       O446   2.068       .  S
Fe445       O454   1.973       .  S
O446        C453   1.272       .  A
O447        C461   1.283       .  A
O448        C453   1.268       .  A
O449        C452   1.273       .  A
O450        C462   1.259       .  A
O451        C464   1.267       .  A
C452        O457   1.260       .  A
C452        C600   1.492       .  S
C453        C617   1.479       .  S
O455        C458   1.274       .  A
O456        C458   1.263       .  A
C458        C544   1.467       .  S
O459        C464   1.274       .  A
O460        C462   1.266       .  A
C461        O463   1.279       .  A
C461        C502   1.523       .  S
C462        C491   1.494       .  S
C464        C558   1.486       .  S
Fe465       O481   2.052       .  S
Fe465       O471   2.103       .  S
Fe465       O478   2.142       .  S
Fe465       O470   2.061       .  S
Fe465       O476   1.978       .  S
Fe466       O469   2.040       .  S
Fe466       O473   2.074       .  S
Fe466       O477   2.065       .  S
Fe466       O482   2.084       .  S
Fe466       O476   1.971       .  S
Fe467       O485   2.081       .  S
Fe467       O472   2.083       .  S
Fe467       O479   2.077       .  S
Fe467       O468   2.072       .  S
Fe467       O476   1.971       .  S
O468        C475   1.273       .  A
O469        C483   1.269       .  A
O470        C475   1.269       .  A
O471        C474   1.279       .  A
O472        C484   1.278       .  A
O473        C486   1.269       .  A
C474        O479   1.274       .  A
C474        C642   1.494       .  S
C475        C628   1.477       .  S
O477        C480   1.272       .  A
O478        C480   1.287       .  A
C480        C519   1.501       .  S
O481        C486   1.263       .  A
O482        C484   1.269       .  A
C483        O485   1.272       .  A
C483        C572   1.484       .  S
C484        C589   1.487       .  S
C486        C530   1.479       .  S
C487        C488   1.394       .  A
C487        C492   1.405       .  A
C487        H494   0.988       .  S
C488        C660   1.717   1_554  S
C488        C489   1.523       .  A
C489        C490   1.419       .  A
C489        N496   1.436       .  S
C490        C491   1.376       .  A
C490        H495   1.086       .  S
C491        C492   1.376       .  A
C492        N493   1.419       .  S
N493        O497   1.260       .  A
N493        O498   1.256       .  A
N496        O500   1.260       .  A
N496        O499   1.265       .  A
C501        C502   1.402       .  A
C501        C506   1.424       .  A
C501        H508   1.084       .  S
C502        C503   1.411       .  A
C503        C504   1.424       .  A
C503        N510   1.429       .  S
C504        C505   1.428       .  A
C504        H509   1.016       .  S
C505        C506   1.471       .  A
C506        N507   1.444       .  S
N507        O511   1.256       .  A
N507        O512   1.262       .  A
N510        O514   1.262       .  A
N510        O513   1.261       .  A
C515        C516   1.447       .  A
C515        C520   1.403       .  A
C515        H522   1.041       .  S
C517        C518   1.439       .  A
C517        N524   1.422       .  S
C518        C519   1.396       .  A
C518        H523   1.083       .  S
C520        N521   1.434   1_565  S
N521        O525   1.261   1_545  A
N524        O528   1.264       .  A
C529        C534   1.416       .  A
C529        H536   1.087       .  S
C530        C531   1.389       .  A
C531        C532   1.407       .  A
C531        N538   1.438       .  S
C532        H537   1.066       .  S
C533        C659   1.711       .  S
C533        C534   1.498       .  A
C534        N535   1.432       .  S
N535        O539   1.261       .  A
N535        O540   1.252       .  A
N538        O542   1.263       .  A
N538        O541   1.261       .  A
C543        C544   1.378       .  A
C543        C548   1.420   1_455  A
C543        H550   1.084   1_455  S
C544        C545   1.376       .  A
C545        C546   1.388       .  A
C545        N552   1.429       .  S
C546        C547   1.448   1_455  A
C546        H551   1.035       .  S
C547       C1312   1.671       .  S
C547        C548   1.442       .  A
C548       N1421   1.400       .  S
N549       C1420   1.402       .  S
N549        O553   1.264       .  A
N552        O556   1.261       .  A
N552        O555   1.261       .  A
C557        C558   1.395   1_655  A
C557       C1434   1.409       .  A
C557       H1436   1.083       .  S
C558        C559   1.400       .  A
C559        C560   1.419       .  A
C559        N566   1.433       .  S
C560        C561   1.458       .  A
C560        H565   1.045       .  S
C561       C1530   1.722   1_455  S
C561       C1434   1.466   1_455  A
C562       C1429   1.406       .  A
C562       C1433   1.461       .  A
C562        N563   1.451       .  S
N563        O567   1.253       .  A
H564       C1429   1.082       .  S
N566        O570   1.260       .  A
N566        O569   1.262       .  A
C571        C576   1.418       .  A
C571        H578   1.086       .  S
C572        C573   1.379       .  A
C573        C574   1.410       .  A
C573        N580   1.436       .  S
C574        H579   1.035       .  S
C575        C657   1.703       .  S
C575        C576   1.476       .  A
C576        N577   1.430       .  S
N577        O581   1.250       .  A
N577        O582   1.263       .  A
N580        O584   1.258       .  A
N580        O583   1.260       .  A
C585        C586   1.440       .  A
C585        C590   1.424       .  A
C585        H592   1.047       .  S
C587        C588   1.405       .  A
C587        N594   1.434       .  S
C588        C589   1.356       .  A
C588        H593   1.089       .  S
C590        N591   1.435       .  S
N591        O595   1.260       .  A
N591        O596   1.262       .  A
N594        O598   1.264       .  A
N594        O597   1.258       .  A
C599        C600   1.399       .  A
C599        C604   1.418       .  A
C599        H606   1.084       .  S
C600        C601   1.387       .  A
C601        C602   1.403   1_455  A
C601       N1480   1.428   1_455  S
C602        C603   1.410   1_655  A
C602       H1479   1.002       .  S
C603       C1310   1.708   1_455  S
C603        C604   1.476       .  A
C604        N605   1.436       .  S
N605        O609   1.259       .  A
N605        O610   1.261       .  A
H607       C1474   1.003       .  S
N608       C1473   1.428       .  S
N608        O612   1.259       .  A
N608       O1483   1.260       .  A
O611       N1480   1.260   1_455  A
C613        C614   1.448   1_455  A
C613        C618   1.402       .  A
C613        H620   1.041       .  S
C614       C1528   1.733       .  S
C614        C615   1.485       .  A
C615        C616   1.417       .  A
C615       N1494   1.421       .  S
C616        C617   1.372   1_655  A
C616        H621   1.086       .  S
C617        C618   1.385       .  A
C618        N619   1.437       .  S
N619        O623   1.261       .  A
N619        O624   1.260       .  A
N622       C1487   1.422       .  S
N622        O626   1.261       .  A
N622        O625   1.256       .  A
C627        C628   1.355       .  A
C627        C632   1.385       .  A
C627        H634   1.090       .  S
C628        C629   1.408       .  A
C629        C630   1.434       .  A
C629        N636   1.446       .  S
C630        C631   1.445       .  A
C630        H635   1.067       .  S
C631        C655   1.679       .  S
C631        C632   1.490       .  A
C632        N633   1.425       .  S
N633        O637   1.262       .  A
N633        O638   1.263       .  A
N636        O640   1.261       .  A
N636        O639   1.263       .  A
C641        C642   1.357       .  A
C641        C646   1.405       .  A
C641        H648   1.087       .  S
C642        C643   1.394       .  A
C643        C644   1.435       .  A
C643        N650   1.428       .  S
C644        C645   1.421       .  A
C644        H649   1.049       .  S
C645        C646   1.517       .  A
C646        N647   1.441       .  S
N647        O869   1.264       .  A
N647        O870   1.262   1_554  A
N650        O654   1.259       .  A
N650        O653   1.260       .  A
O651        N865   1.265       .  A
O652        N865   1.262       .  A
C655        C863   1.710       .  S
C656       C1693   1.708   1_554  S
C656       C1486   1.739       .  S
C656       C1529   1.873       .  S
C657        C804   1.689   1_554  S
C657       C1528   1.876   1_455  S
C657        C876   1.882   1_455  S
C658       C1637   1.677       .  S
C658       C1433   1.713       .  S
C658        C875   1.884       .  S
C659        C734   1.689   1_554  S
C659        C660   1.826   1_554  S
C660        C723   1.749       .  S
Fe661       O677   2.073       .  S
Fe661       O667   2.090       .  S
Fe661       O674   2.056       .  S
Fe661       O666   2.079       .  S
Fe661       O672   1.977       .  S
Fe662       O665   2.116       .  S
Fe662       O669   2.071       .  S
Fe662       O673   2.078       .  S
Fe662       O678   2.084       .  S
Fe662       O672   1.981       .  S
Fe663       O681   2.095       .  S
Fe663       O668   2.036       .  S
Fe663       O675   2.036       .  S
Fe663       O664   2.071       .  S
Fe663       O672   1.972       .  S
O664        C671   1.273       .  A
O665        C679   1.281       .  A
O666        C671   1.270       .  A
O667        C670   1.274       .  A
O668        C680   1.259       .  A
O669        C682   1.267       .  A
C670        O675   1.259       .  A
C670        C818   1.494       .  S
C671        C835   1.481       .  S
O673        C676   1.274       .  A
O674        C676   1.265       .  A
C676        C762   1.470       .  S
O677        C682   1.275       .  A
O678        C680   1.266       .  A
C679        O681   1.279       .  A
C679        C720   1.519       .  S
C680        C709   1.493       .  S
C682        C776   1.485       .  S
Fe683       O699   2.046       .  S
Fe683       O689   2.112       .  S
Fe683       O696   2.146       .  S
Fe683       O688   2.058       .  S
Fe683       O694   1.975       .  S
Fe684       O687   2.042       .  S
Fe684       O691   2.079       .  S
Fe684       O695   2.066       .  S
Fe684       O700   2.084       .  S
Fe684       O694   1.971       .  S
Fe685       O703   2.077       .  S
Fe685       O690   2.078       .  S
Fe685       O697   2.074       .  S
Fe685       O686   2.066       .  S
Fe685       O694   1.973       .  S
O686        C693   1.271       .  A
O687        C701   1.270       .  A
O688        C693   1.269       .  A
O689        C692   1.281       .  A
O690        C702   1.277       .  A
O691        C704   1.270       .  A
C692        O697   1.274       .  A
C692        C860   1.498       .  S
C693        C846   1.474       .  S
O695        C698   1.272       .  A
O696        C698   1.287       .  A
C698        C737   1.503       .  S
O699        C704   1.263       .  A
O700        C702   1.269       .  A
C701        O703   1.270       .  A
C701        C790   1.481       .  S
C702        C807   1.482       .  S
C704        C748   1.478       .  S
C705        C706   1.393       .  A
C705        C710   1.403       .  A
C705        H712   0.987       .  S
C706        C707   1.521       .  A
C707        C708   1.419       .  A
C707        N714   1.436       .  S
C708        C709   1.376       .  A
C708        H713   1.086       .  S
C709        C710   1.376       .  A
C710        N711   1.418       .  S
N711        O715   1.260       .  A
N711        O716   1.256       .  A
N714        O718   1.261       .  A
N714        O717   1.265       .  A
C719        C720   1.399       .  A
C719        C724   1.422       .  A
C719        H726   1.084       .  S
C720        C721   1.409       .  A
C721        C722   1.423       .  A
C721        N728   1.427       .  S
C722        C723   1.427       .  A
C722        H727   1.016       .  S
C723        C724   1.469       .  A
C724        N725   1.442       .  S
N725        O729   1.256       .  A
N725        O730   1.262       .  A
N728        O732   1.262       .  A
N728        O731   1.261       .  A
C733        C734   1.447       .  A
C733        C738   1.404       .  A
C733        H740   1.042       .  S
C735        C736   1.440       .  A
C735        N742   1.424       .  S
C736        C737   1.398       .  A
C736        H741   1.083       .  S
C738        N739   1.431   1_565  S
N739        O743   1.259   1_545  A
N742        O746   1.264       .  A
C747        C752   1.416       .  A
C747        H754   1.087       .  S
C748        C749   1.388       .  A
C749        C750   1.406       .  A
C749        N756   1.439       .  S
C750        H755   1.065       .  S
C751        C752   1.496       .  A
C752        N753   1.431       .  S
N753        O757   1.262       .  A
N753        O758   1.252       .  A
N756        O760   1.263       .  A
N756        O759   1.260       .  A
C761        C762   1.380       .  A
C761        C766   1.421   1_455  A
C761        H768   1.084   1_455  S
C762        C763   1.378       .  A
C763        C764   1.390       .  A
C763        N770   1.430       .  S
C764        C765   1.447   1_455  A
C764        H769   1.038       .  S
C765       C1530   1.670       .  S
C765        C766   1.442       .  A
C766       N1639   1.401       .  S
N767       C1638   1.401       .  S
N767        O771   1.263       .  A
N770        O774   1.261       .  A
N770        O773   1.261       .  A
C775        C776   1.396   1_655  A
C775       C1652   1.409       .  A
C775       H1654   1.083       .  S
C776        C777   1.403       .  A
C777        C778   1.419       .  A
C777        N784   1.432       .  S
C778        C779   1.451       .  A
C778        H783   1.041       .  S
C779       C1312   1.717   1_456  S
C779       C1652   1.461   1_455  A
C780       C1647   1.409       .  A
C780       C1651   1.461       .  A
C780        N781   1.451       .  S
N781        O785   1.253       .  A
H782       C1647   1.082       .  S
N784        O788   1.261       .  A
N784        O787   1.262       .  A
C789        C794   1.415       .  A
C789        H796   1.085       .  S
C790        C791   1.375       .  A
C791        C792   1.412       .  A
C791        N798   1.434       .  S
C792        H797   1.036       .  S
C793        C794   1.473       .  A
C794        N795   1.429       .  S
N795        O799   1.251       .  A
N795        O800   1.263       .  A
N798        O802   1.256       .  A
N798        O801   1.261       .  A
C803        C804   1.442       .  A
C803        C808   1.423       .  A
C803        H810   1.050       .  S
C805        C806   1.404       .  A
C805        N812   1.441   1_556  S
C806        C807   1.360       .  A
C806        H811   1.089       .  S
C808        N809   1.429       .  S
N809        O813   1.261       .  A
N809        O814   1.261       .  A
N812        O816   1.264       .  A
N812        O815   1.261       .  A
C817        C818   1.396       .  A
C817        C822   1.418       .  A
C817        H824   1.083       .  S
C818        C819   1.384       .  A
C819        C820   1.405   1_455  A
C819       N1698   1.427   1_455  S
C820        C821   1.412   1_655  A
C820       H1697   1.002       .  S
C821       C1528   1.710   1_456  S
C821        C822   1.476       .  A
C822        N823   1.434       .  S
N823        O827   1.259       .  A
N823        O828   1.261       .  A
H825       C1692   1.002       .  S
N826       C1691   1.428       .  S
N826        O830   1.259       .  A
N826       O1701   1.260       .  A
O829       N1698   1.260   1_455  A
C831        C832   1.448   1_455  A
C831        C836   1.403       .  A
C831        H838   1.036       .  S
C832       C1310   1.739       .  S
C832        C833   1.486       .  A
C833        C834   1.419       .  A
C833       N1712   1.420       .  S
C834        C835   1.372   1_655  A
C834        H839   1.086       .  S
C835        C836   1.385       .  A
C836        N837   1.438       .  S
N837        O841   1.262       .  A
N837        O842   1.260       .  A
N840       C1705   1.422       .  S
N840        O844   1.261       .  A
N840        O843   1.257       .  A
C845        C846   1.355       .  A
C845        C850   1.385       .  A
C845        H852   1.090       .  S
C846        C847   1.405       .  A
C847        C848   1.433       .  A
C847        N854   1.445       .  S
C848        C849   1.446       .  A
C848        H853   1.066       .  S
C849        C850   1.491       .  A
C850        N851   1.427       .  S
N851        O855   1.262   1_556  A
N851        O856   1.263       .  A
N854        O858   1.262       .  A
N854        O857   1.262       .  A
C859        C860   1.356       .  A
C859        C864   1.407       .  A
C859        H866   1.087       .  S
C860        C861   1.395       .  A
C861        C862   1.437       .  A
C861        N868   1.428       .  S
C862        C863   1.421       .  A
C862        H867   1.049       .  S
C863        C864   1.518       .  A
C864        N865   1.439       .  S
N868        O872   1.259       .  A
N868        O871   1.260       .  A
C873       C1285   1.685       .  S
C873       C1081   1.704   1_556  S
C873       C1092   1.918   1_556  S
C873       C1096   1.919       .  S
C874       C1091   1.921       .  S
C875       C1229   1.695       .  S
C875       C1022   1.690       .  S
C876       C1531   1.865       .  S
C877        C952   1.684       .  S
C877       C1187   1.715       .  S
C877       C1530   1.868       .  S
C877        C878   1.826       .  S
C878       C1142   1.711       .  S
C878        C941   1.752       .  S
C878       C1091   1.922       .  S
Fe879       O895   2.062       .  S
Fe879       O885   2.082       .  S
Fe879       O892   2.050       .  S
Fe879       O884   2.068       .  S
Fe879       O890   1.981       .  S
Fe880       O883   2.130       .  S
Fe880       O887   2.057       .  S
Fe880       O891   2.081       .  S
Fe880       O896   2.084       .  S
Fe880       O890   1.978       .  S
Fe881       O899   2.104       .  S
Fe881       O886   2.035       .  S
Fe881       O893   2.041       .  S
Fe881       O882   2.074       .  S
Fe881       O890   1.969       .  S
O882        C889   1.274       .  A
O883        C897   1.284       .  A
O884        C889   1.268       .  A
O885        C888   1.272       .  A
O886        C898   1.259       .  A
O887        C900   1.266       .  A
C888        O893   1.260       .  A
C888       C1036   1.492       .  S
C889       C1053   1.477       .  S
O891        C894   1.275       .  A
O892        C894   1.263       .  A
C894        C980   1.469       .  S
O895        C900   1.273       .  A
O896        C898   1.266       .  A
C897        O899   1.281       .  A
C897        C938   1.529       .  S
C898        C927   1.494       .  S
C900        C994   1.477       .  S
Fe901       O917   2.056       .  S
Fe901       O907   2.098       .  S
Fe901       O914   2.144       .  S
Fe901       O906   2.058       .  S
Fe901       O912   1.974       .  S
Fe902       O905   2.043       .  S
Fe902       O909   2.084   1_545  S
Fe902       O913   2.071       .  S
Fe902       O918   2.086       .  S
Fe902       O912   1.968       .  S
Fe903       O921   2.076       .  S
Fe903       O908   2.073       .  S
Fe903       O915   2.071       .  S
Fe903       O904   2.069       .  S
Fe903       O912   1.971       .  S
O904        C911   1.272       .  A
O905        C919   1.271       .  A
O906        C911   1.270       .  A
O907        C910   1.278       .  A
O908        C920   1.277       .  A
O909        C922   1.272   1_565  A
C910        O915   1.273       .  A
C910       C1078   1.490       .  S
C911       C1064   1.474       .  S
O913        C916   1.273       .  A
O914        C916   1.286       .  A
C916        C955   1.505   1_545  S
O917        C922   1.264       .  A
O918        C920   1.270       .  A
C919        O921   1.271       .  A
C919       C1008   1.482       .  S
C920       C1025   1.482       .  S
C922        C966   1.485       .  S
C923        C924   1.397       .  A
C923        C928   1.406       .  A
C923        H930   0.989       .  S
C924       C1096   1.718   1_554  S
C924        C925   1.522       .  A
C925        C926   1.418       .  A
C925        N932   1.437       .  S
C926        C927   1.376       .  A
C926        H931   1.086       .  S
C927        C928   1.377       .  A
C928        N929   1.419       .  S
N929        O933   1.260       .  A
N929        O934   1.255       .  A
N932        O936   1.261       .  A
N932        O935   1.265       .  A
C937        C938   1.400       .  A
C937        C942   1.424       .  A
C937        H944   1.084       .  S
C938        C939   1.411       .  A
C939        C940   1.429       .  A
C939        N946   1.427       .  S
C940        C941   1.430       .  A
C940        H945   1.020       .  S
C941        C942   1.468       .  A
C942        N943   1.441       .  S
N943        O947   1.256       .  A
N943        O948   1.261       .  A
N946        O950   1.262       .  A
N946        O949   1.261       .  A
C951        C952   1.446       .  A
C951        C956   1.405       .  A
C951        H958   1.040       .  S
C952       C1389   1.451       .  A
C953       C1388   1.450       .  A
C953        C954   1.442       .  A
C953        N960   1.425       .  S
C954        C955   1.399       .  A
C954        H959   1.083       .  S
C955       C1392   1.385       .  A
C956       C1391   1.384       .  A
C956        N957   1.434       .  S
N957        O961   1.261       .  A
N957       O1398   1.262       .  A
N960        O964   1.264       .  A
N960       O1399   1.248       .  A
O962       N1393   1.263       .  A
O963       N1396   1.246       .  A
C965       C1402   1.378       .  A
C965        C970   1.416       .  A
C965        H972   1.087       .  S
C966       C1401   1.377   1_545  A
C966        C967   1.386       .  A
C967        C968   1.401       .  A
C967        N974   1.427       .  S
C968       C1405   1.441   1_545  A
C968        H973   1.063       .  S
C969       C1095   1.713       .  S
C969       C1404   1.444       .  A
C969        C970   1.497       .  A
C970        N971   1.431       .  S
N971        O975   1.262       .  A
N971        O976   1.252       .  A
N974        O978   1.261       .  A
N974        O977   1.259       .  A
C979        C980   1.381       .  A
C979        C984   1.423   1_545  A
C979        H986   1.084       .  S
C980        C981   1.376       .  A
C981        C982   1.387       .  A
C981        N988   1.430       .  S
C982        C983   1.446       .  A
C982        H987   1.033       .  S
C983        C984   1.442   1_545  A
N985        O989   1.264       .  A
N985       O1426   1.258       .  A
N988        O992   1.261       .  A
N988        O991   1.261       .  A
O990       N1421   1.257       .  A
C993        C994   1.391       .  A
C994        C995   1.403       .  A
C995        C996   1.424       .  A
C995       N1002   1.443       .  S
C996        C997   1.454       .  A
C996       H1001   1.046       .  S
C998        N999   1.452       .  S
N999       O1003   1.252       .  A
N999       O1440   1.265   1_655  A
N1002      O1006   1.259       .  A
N1002      O1005   1.263       .  A
O1004      N1435   1.265   1_455  A
C1007      C1444   1.370       .  A
C1007      C1012   1.419       .  A
C1007      H1014   1.085       .  S
C1008      C1443   1.368   1_545  A
C1008      C1009   1.377       .  A
C1009      C1010   1.412       .  A
C1009      N1016   1.436       .  S
C1010      C1447   1.438   1_545  A
C1010      H1015   1.034       .  S
C1011      C1093   1.705       .  S
C1011      C1446   1.438       .  A
C1011      C1012   1.474       .  A
C1012      N1013   1.429       .  S
N1013      O1017   1.250       .  A
N1013      O1018   1.263       .  A
N1016      O1020   1.257       .  A
N1016      O1019   1.261       .  A
C1021      C1022   1.439       .  A
C1021      C1026   1.418       .  A
C1021      H1028   1.045       .  S
C1022      C1459   1.518       .  A
C1023      C1458   1.518   1_545  A
C1023      C1024   1.404       .  A
C1023      N1030   1.440       .  S
C1024      C1025   1.356       .  A
C1024      H1029   1.089       .  S
C1025      C1462   1.397   1_545  A
C1026      C1461   1.394       .  A
C1026      N1027   1.431       .  S
N1027      O1031   1.260       .  A
N1027      O1032   1.262       .  A
N1030      O1034   1.262       .  A
N1030      O1033   1.261       .  A
C1035      C1036   1.398       .  A
C1035      C1040   1.415       .  A
C1035      H1042   1.083       .  S
C1036      C1037   1.388       .  A
C1037      C1038   1.406       .  A
C1038      C1039   1.412       .  A
C1039      C1040   1.470       .  A
C1040      N1041   1.433       .  S
N1041      O1045   1.259       .  A
N1041      O1046   1.260       .  A
N1044      O1048   1.259       .  A
C1049      C1050   1.452       .  A
C1049      C1054   1.401       .  A
C1049      H1056   1.042       .  S
C1050      C1051   1.481       .  A
C1051      C1052   1.416       .  A
C1052      C1053   1.374       .  A
C1052      H1057   1.086       .  S
C1053      C1054   1.382       .  A
C1054      N1055   1.436       .  S
N1055      O1059   1.261       .  A
N1055      O1060   1.260       .  A
N1058      O1062   1.261   1_655  A
N1058      O1061   1.257       .  A
C1063      C1064   1.355       .  A
C1063      C1068   1.386       .  A
C1063      H1070   1.090       .  S
C1064      C1065   1.404       .  A
C1065      C1066   1.431       .  A
C1065      N1072   1.444       .  S
C1066      C1067   1.445       .  A
C1066      H1071   1.066       .  S
C1067      C1091   1.679       .  S
C1067      C1068   1.493       .  A
C1068      N1069   1.429       .  S
N1069      O1073   1.262       .  A
N1069      O1074   1.263       .  A
N1072      O1076   1.262       .  A
N1072      O1075   1.262       .  A
C1077      C1078   1.353       .  A
C1077      C1082   1.402       .  A
C1077      H1084   1.088       .  S
C1078      C1079   1.393       .  A
C1079      C1080   1.434       .  A
C1079      N1086   1.426       .  S
C1080      C1081   1.419       .  A
C1080      H1085   1.049       .  S
C1081      C1082   1.518       .  A
C1082      N1083   1.440       .  S
N1083      O1305   1.265       .  A
N1083      O1306   1.262   1_554  A
N1086      O1090   1.258       .  A
N1086      O1089   1.260       .  A
O1087      N1301   1.263       .  A
O1088      N1301   1.262       .  A
C1091      C1299   1.709       .  S
C1093      C1240   1.692   1_554  S
C1094      C1313   1.868       .  S
C1095      C1170   1.682   1_554  S
C1095      C1312   1.866       .  S
C1095      C1096   1.828   1_554  S
C1096      C1159   1.749       .  S
Fe1097     O1113   2.077       .  S
Fe1097     O1103   2.079       .  S
Fe1097     O1110   2.044       .  S
Fe1097     O1102   2.087       .  S
Fe1097     O1108   1.968       .  S
Fe1098     O1101   2.130       .  S
Fe1098     O1105   2.063       .  S
Fe1098     O1109   2.086       .  S
Fe1098     O1114   2.085       .  S
Fe1098     O1108   1.972       .  S
Fe1099     O1117   2.089       .  S
Fe1099     O1104   2.041       .  S
Fe1099     O1111   2.045       .  S
Fe1099     O1100   2.067       .  S
Fe1099     O1108   1.964       .  S
O1100      C1107   1.272       .  A
O1101      C1115   1.285       .  A
O1102      C1107   1.272       .  A
O1103      C1106   1.272       .  A
O1104      C1116   1.261       .  A
O1105      C1118   1.267       .  A
C1106      O1111   1.261       .  A
C1106      C1254   1.494       .  S
C1107      C1271   1.486       .  S
O1109      C1112   1.277       .  A
O1110      C1112   1.263       .  A
C1112      C1198   1.468       .  S
O1113      C1118   1.274       .  A
O1114      C1116   1.266       .  A
C1115      O1117   1.278       .  A
C1115      C1156   1.523       .  S
C1116      C1145   1.494       .  S
C1118      C1212   1.487       .  S
Fe1119     O1135   2.051       .  S
Fe1119     O1125   2.108       .  S
Fe1119     O1132   2.142       .  S
Fe1119     O1124   2.066       .  S
Fe1119     O1130   1.976       .  S
Fe1120     O1123   2.041       .  S
Fe1120     O1127   2.074   1_545  S
Fe1120     O1131   2.069   1_545  S
Fe1120     O1136   2.082       .  S
Fe1120     O1130   1.973       .  S
Fe1121     O1139   2.081       .  S
Fe1121     O1126   2.077       .  S
Fe1121     O1133   2.076       .  S
Fe1121     O1122   2.074       .  S
Fe1121     O1130   1.972       .  S
O1122      C1129   1.273       .  A
O1123      C1137   1.269       .  A
O1124      C1129   1.270       .  A
O1125      C1128   1.280       .  A
O1126      C1138   1.277       .  A
O1127      C1140   1.269   1_565  A
C1128      O1133   1.273       .  A
C1128      C1296   1.496       .  S
C1129      C1282   1.480       .  S
O1131      C1134   1.273   1_565  A
O1132      C1134   1.287       .  A
C1134      C1173   1.504   1_545  S
O1135      C1140   1.264       .  A
O1136      C1138   1.269       .  A
C1137      O1139   1.272       .  A
C1137      C1226   1.484       .  S
C1138      C1243   1.482       .  S
C1140      C1184   1.481       .  S
C1141      C1142   1.390       .  A
C1141      C1146   1.404       .  A
C1141      H1148   0.989       .  S
C1142      C1143   1.518       .  A
C1143      C1144   1.418       .  A
C1143      N1150   1.436       .  S
C1144      C1145   1.378       .  A
C1144      H1149   1.086       .  S
C1145      C1146   1.379       .  A
C1146      N1147   1.418       .  S
N1147      O1151   1.260       .  A
N1147      O1152   1.255       .  A
N1150      O1154   1.261       .  A
N1150      O1153   1.265       .  A
C1155      C1156   1.401       .  A
C1155      C1160   1.423       .  A
C1155      H1162   1.084       .  S
C1156      C1157   1.410       .  A
C1157      C1158   1.423       .  A
C1157      N1164   1.428       .  S
C1158      C1159   1.426       .  A
C1158      H1163   1.016       .  S
C1159      C1160   1.471       .  A
C1160      N1161   1.442       .  S
N1161      O1165   1.256       .  A
N1161      O1166   1.262       .  A
N1164      O1168   1.262       .  A
N1164      O1167   1.261       .  A
C1169      C1170   1.446       .  A
C1169      C1174   1.402       .  A
C1169      H1176   1.040       .  S
C1170      C1607   1.450       .  A
C1171      C1606   1.451       .  A
C1171      C1172   1.440       .  A
C1171      N1178   1.423       .  S
C1172      C1173   1.397       .  A
C1172      H1177   1.083       .  S
C1173      C1610   1.386       .  A
C1174      C1609   1.385       .  A
C1174      N1175   1.432       .  S
N1175      O1179   1.260       .  A
N1175      O1616   1.262       .  A
N1178      O1182   1.264       .  A
N1178      O1617   1.247       .  A
O1180      N1611   1.263       .  A
O1181      N1614   1.247       .  A
C1183      C1620   1.376       .  A
C1183      C1188   1.416       .  A
C1183      H1190   1.087       .  S
C1184      C1619   1.375   1_545  A
C1184      C1185   1.389       .  A
C1185      C1186   1.408       .  A
C1185      N1192   1.438       .  S
C1186      C1623   1.445   1_545  A
C1186      H1191   1.065       .  S
C1187      C1622   1.442       .  A
C1187      C1188   1.499       .  A
C1188      N1189   1.431       .  S
N1189      O1193   1.262       .  A
N1189      O1194   1.253       .  A
N1192      O1196   1.263       .  A
N1192      O1195   1.259       .  A
C1197      C1198   1.381       .  A
C1197      C1202   1.423       .  A
C1197      H1204   1.084       .  S
C1198      C1199   1.375       .  A
C1199      C1200   1.386       .  A
C1199      N1206   1.431       .  S
C1200      C1201   1.446       .  A
C1200      H1205   1.032       .  S
C1201      C1202   1.442       .  A
N1203      O1207   1.263       .  A
N1203      O1644   1.257       .  A
N1206      O1210   1.260       .  A
N1206      O1209   1.261       .  A
O1208      N1639   1.258       .  A
C1211      C1212   1.395       .  A
C1212      C1213   1.407       .  A
C1213      C1214   1.426       .  A
C1213      N1220   1.443       .  S
C1214      C1215   1.459       .  A
C1214      H1219   1.044       .  S
C1216      N1217   1.454       .  S
N1217      O1221   1.254       .  A
N1217      O1658   1.264   1_655  A
N1220      O1224   1.260       .  A
N1220      O1223   1.263       .  A
O1222      N1653   1.264   1_455  A
C1225      C1662   1.374       .  A
C1225      C1230   1.417       .  A
C1225      H1232   1.084       .  S
C1226      C1661   1.372   1_545  A
C1226      C1227   1.379       .  A
C1227      C1228   1.413       .  A
C1227      N1234   1.435       .  S
C1228      C1665   1.437   1_545  A
C1228      H1233   1.039       .  S
C1229      C1664   1.437       .  A
C1229      C1230   1.474       .  A
C1230      N1231   1.430       .  S
N1231      O1235   1.250       .  A
N1231      O1236   1.264       .  A
N1234      O1238   1.257       .  A
N1234      O1237   1.261       .  A
C1239      C1240   1.442       .  A
C1239      C1244   1.424       .  A
C1239      H1246   1.051       .  S
C1240      C1677   1.514       .  A
C1241      C1676   1.510   1_545  A
C1241      C1242   1.404       .  A
C1241      N1248   1.434   1_556  S
C1242      C1243   1.356       .  A
C1242      H1247   1.089       .  S
C1243      C1680   1.397   1_545  A
C1244      C1679   1.399       .  A
C1244      N1245   1.429       .  S
N1245      O1249   1.261       .  A
N1245      O1250   1.261       .  A
N1248      O1252   1.262       .  A
N1248      O1251   1.258       .  A
C1253      C1254   1.396       .  A
C1253      C1258   1.418       .  A
C1253      H1260   1.083       .  S
C1254      C1255   1.385       .  A
C1255      C1256   1.403       .  A
C1256      C1257   1.412       .  A
C1257      C1258   1.479       .  A
C1258      N1259   1.436       .  S
N1259      O1263   1.259       .  A
N1259      O1264   1.261       .  A
N1262      O1266   1.260       .  A
C1267      C1268   1.447       .  A
C1267      C1272   1.404       .  A
C1267      H1274   1.038       .  S
C1268      C1269   1.481       .  A
C1269      C1270   1.420       .  A
C1270      C1271   1.376       .  A
C1270      H1275   1.086       .  S
C1271      C1272   1.387       .  A
C1272      N1273   1.439       .  S
N1273      O1277   1.262       .  A
N1273      O1278   1.260       .  A
N1276      O1280   1.261   1_655  A
N1276      O1279   1.256       .  A
C1281      C1282   1.356       .  A
C1281      C1286   1.388       .  A
C1281      H1288   1.090       .  S
C1282      C1283   1.406       .  A
C1283      C1284   1.436       .  A
C1283      N1290   1.444       .  S
C1284      C1285   1.448       .  A
C1284      H1289   1.068       .  S
C1285      C1286   1.492       .  A
C1286      N1287   1.426       .  S
N1287      O1291   1.262   1_556  A
N1287      O1292   1.262       .  A
N1290      O1294   1.261       .  A
N1290      O1293   1.262       .  A
C1295      C1296   1.357       .  A
C1295      C1300   1.406       .  A
C1295      H1302   1.086       .  S
C1296      C1297   1.394       .  A
C1297      C1298   1.437       .  A
C1297      N1304   1.428       .  S
C1298      C1299   1.418       .  A
C1298      H1303   1.049       .  S
C1299      C1300   1.517       .  A
C1300      N1301   1.439       .  S
N1304      O1308   1.259       .  A
N1304      O1307   1.260       .  A
C1309      C1721   1.681       .  S
C1309      C1517   1.705   1_556  S
C1309      C1528   1.918   1_556  S
C1309      C1532   1.919       .  S
C1310      C1527   1.920       .  S
C1311      C1665   1.698       .  S
C1311      C1458   1.691       .  S
C1313      C1388   1.689       .  S
C1313      C1623   1.714       .  S
C1313      C1314   1.828       .  S
C1314      C1578   1.720       .  S
C1314      C1377   1.747       .  S
C1314      C1527   1.921       .  S
Fe1315     O1331   2.073       .  S
Fe1315     O1321   2.084       .  S
Fe1315     O1328   2.051       .  S
Fe1315     O1320   2.082       .  S
Fe1315     O1326   1.971       .  S
Fe1316     O1319   2.129       .  S
Fe1316     O1323   2.062       .  S
Fe1316     O1327   2.092       .  S
Fe1316     O1332   2.089       .  S
Fe1316     O1326   1.977       .  S
Fe1317     O1335   2.092       .  S
Fe1317     O1322   2.031       .  S
Fe1317     O1329   2.042       .  S
Fe1317     O1318   2.072       .  S
Fe1317     O1326   1.967       .  S
O1318      C1325   1.273       .  A
O1319      C1333   1.285       .  A
O1320      C1325   1.271       .  A
O1321      C1324   1.273       .  A
O1322      C1334   1.259       .  A
O1323      C1336   1.266       .  A
C1324      O1329   1.259       .  A
C1324      C1472   1.496       .  S
C1325      C1489   1.484       .  S
O1327      C1330   1.277       .  A
O1328      C1330   1.264       .  A
C1330      C1416   1.474       .  S
O1331      C1336   1.274       .  A
O1332      C1334   1.267       .  A
C1333      O1335   1.278       .  A
C1333      C1374   1.524       .  S
C1334      C1363   1.493       .  S
C1336      C1430   1.482       .  S
Fe1337     O1353   2.042       .  S
Fe1337     O1343   2.102       .  S
Fe1337     O1350   2.133       .  S
Fe1337     O1342   2.056       .  S
Fe1337     O1348   1.972       .  S
Fe1338     O1341   2.045       .  S
Fe1338     O1345   2.084       .  S
Fe1338     O1349   2.072       .  S
Fe1338     O1354   2.083       .  S
Fe1338     O1348   1.972       .  S
Fe1339     O1357   2.080       .  S
Fe1339     O1344   2.070       .  S
Fe1339     O1351   2.073       .  S
Fe1339     O1340   2.070       .  S
Fe1339     O1348   1.972       .  S
O1340      C1347   1.272       .  A
O1341      C1355   1.270       .  A
O1342      C1347   1.268       .  A
O1343      C1346   1.278       .  A
O1344      C1356   1.275       .  A
O1345      C1358   1.272       .  A
C1346      O1351   1.273       .  A
C1346      C1514   1.493       .  S
C1347      C1500   1.473       .  S
O1349      C1352   1.273       .  A
O1350      C1352   1.284       .  A
C1352      C1391   1.501       .  S
O1353      C1358   1.261       .  A
O1354      C1356   1.270       .  A
C1355      O1357   1.271       .  A
C1355      C1444   1.485       .  S
C1356      C1461   1.477       .  S
C1358      C1402   1.488       .  S
C1359      C1360   1.393       .  A
C1359      C1364   1.405       .  A
C1359      H1366   0.989       .  S
C1360      C1532   1.714   1_554  S
C1360      C1361   1.520       .  A
C1361      C1362   1.417       .  A
C1361      N1368   1.435       .  S
C1362      C1363   1.376       .  A
C1362      H1367   1.086       .  S
C1363      C1364   1.377       .  A
C1364      N1365   1.417       .  S
N1365      O1369   1.261       .  A
N1365      O1370   1.255       .  A
N1368      O1372   1.260       .  A
N1368      O1371   1.265       .  A
C1373      C1374   1.400       .  A
C1373      C1378   1.422       .  A
C1373      H1380   1.083       .  S
C1374      C1375   1.412       .  A
C1375      C1376   1.426       .  A
C1375      N1382   1.430       .  S
C1376      C1377   1.427       .  A
C1376      H1381   1.017       .  S
C1377      C1378   1.467       .  A
C1378      N1379   1.442       .  S
N1379      O1383   1.256       .  A
N1379      O1384   1.262       .  A
N1382      O1386   1.262       .  A
N1382      O1385   1.262       .  A
C1387      C1388   1.447       .  A
C1387      C1392   1.404       .  A
C1387      H1394   1.041       .  S
C1389      C1390   1.438       .  A
C1389      N1396   1.424       .  S
C1390      C1391   1.397       .  A
C1390      H1395   1.083       .  S
C1392      N1393   1.433   1_565  S
N1393      O1397   1.260   1_545  A
N1396      O1400   1.264       .  A
C1401      C1406   1.417       .  A
C1401      H1408   1.087       .  S
C1402      C1403   1.393       .  A
C1403      C1404   1.406       .  A
C1403      N1410   1.434       .  S
C1404      H1409   1.066       .  S
C1405      C1531   1.709       .  S
C1405      C1406   1.500       .  A
C1406      N1407   1.432       .  S
N1407      O1411   1.262       .  A
N1407      O1412   1.252       .  A
N1410      O1414   1.261       .  A
N1410      O1413   1.262       .  A
C1415      C1416   1.381       .  A
C1415      C1420   1.424       .  A
C1415      H1422   1.084       .  S
C1416      C1417   1.377       .  A
C1417      C1418   1.389       .  A
C1417      N1424   1.428       .  S
C1418      C1419   1.443       .  A
C1418      H1423   1.032       .  S
C1419      C1420   1.444       .  A
N1421      O1425   1.263       .  A
N1424      O1428   1.260       .  A
N1424      O1427   1.262       .  A
C1429      C1430   1.394       .  A
C1430      C1431   1.402       .  A
C1431      C1432   1.418       .  A
C1431      N1438   1.433       .  S
C1432      C1433   1.450       .  A
C1432      H1437   1.040       .  S
C1434      N1435   1.452       .  S
N1435      O1439   1.254       .  A
N1438      O1442   1.260       .  A
N1438      O1441   1.262       .  A
C1443      C1448   1.418       .  A
C1443      H1450   1.085       .  S
C1444      C1445   1.378       .  A
C1445      C1446   1.412       .  A
C1445      N1452   1.435       .  S
C1446      H1451   1.027       .  S
C1447      C1529   1.704       .  S
C1447      C1448   1.477       .  A
C1448      N1449   1.429       .  S
N1449      O1453   1.251       .  A
N1449      O1454   1.262       .  A
N1452      O1456   1.258       .  A
N1452      O1455   1.260       .  A
C1457      C1458   1.441       .  A
C1457      C1462   1.421       .  A
C1457      H1464   1.050       .  S
C1459      C1460   1.402       .  A
C1459      N1466   1.442       .  S
C1460      C1461   1.360       .  A
C1460      H1465   1.089       .  S
C1462      N1463   1.430       .  S
N1463      O1467   1.261       .  A
N1463      O1468   1.261       .  A
N1466      O1470   1.264       .  A
N1466      O1469   1.261       .  A
C1471      C1472   1.397       .  A
C1471      C1476   1.419       .  A
C1471      H1478   1.083       .  S
C1472      C1473   1.385       .  A
C1473      C1474   1.406       .  A
C1474      C1475   1.412       .  A
C1475      C1476   1.479       .  A
C1476      N1477   1.435       .  S
N1477      O1481   1.259       .  A
N1477      O1482   1.262       .  A
N1480      O1484   1.259       .  A
C1485      C1486   1.454       .  A
C1485      C1490   1.403       .  A
C1485      H1492   1.041       .  S
C1486      C1487   1.487       .  A
C1487      C1488   1.420       .  A
C1488      C1489   1.374       .  A
C1488      H1493   1.085       .  S
C1489      C1490   1.385       .  A
C1490      N1491   1.437       .  S
N1491      O1495   1.261       .  A
N1491      O1496   1.261       .  A
N1494      O1498   1.261   1_655  A
N1494      O1497   1.257       .  A
C1499      C1500   1.354       .  A
C1499      C1504   1.386       .  A
C1499      H1506   1.090       .  S
C1500      C1501   1.403       .  A
C1501      C1502   1.434       .  A
C1501      N1508   1.444       .  S
C1502      C1503   1.448       .  A
C1502      H1507   1.069       .  S
C1503      C1527   1.682       .  S
C1503      C1504   1.493       .  A
C1504      N1505   1.427       .  S
N1505      O1509   1.262       .  A
N1505      O1510   1.263       .  A
N1508      O1512   1.262       .  A
N1508      O1511   1.260       .  A
C1513      C1514   1.357       .  A
C1513      C1518   1.405       .  A
C1513      H1520   1.088       .  S
C1514      C1515   1.394       .  A
C1515      C1516   1.434       .  A
C1515      N1522   1.427       .  S
C1516      C1517   1.420       .  A
C1516      H1521   1.050       .  S
C1517      C1518   1.518       .  A
C1518      N1519   1.441       .  S
N1519      O1741   1.264       .  A
N1519      O1742   1.262   1_554  A
N1522      O1526   1.258       .  A
N1522      O1525   1.260       .  A
O1523      N1737   1.264       .  A
O1524      N1737   1.261       .  A
C1527      C1735   1.704       .  S
C1529      C1676   1.685   1_554  S
C1531      C1606   1.688   1_554  S
C1531      C1532   1.825   1_554  S
C1532      C1595   1.749       .  S
Fe1533     O1549   2.082       .  S
Fe1533     O1539   2.070       .  S
Fe1533     O1546   2.042       .  S
Fe1533     O1538   2.090       .  S
Fe1533     O1544   1.958       .  S
Fe1534     O1537   2.135       .  S
Fe1534     O1541   2.059       .  S
Fe1534     O1545   2.094       .  S
Fe1534     O1550   2.091       .  S
Fe1534     O1544   1.959       .  S
Fe1535     O1553   2.089       .  S
Fe1535     O1540   2.047       .  S
Fe1535     O1547   2.056       .  S
Fe1535     O1536   2.068       .  S
Fe1535     O1544   1.958       .  S
O1536      C1543   1.272       .  A
O1537      C1551   1.287       .  A
O1538      C1543   1.274       .  A
O1539      C1542   1.271       .  A
O1540      C1552   1.262       .  A
O1541      C1554   1.268       .  A
C1542      O1547   1.262       .  A
C1542      C1690   1.492       .  S
C1543      C1707   1.485       .  S
O1545      C1548   1.278       .  A
O1546      C1548   1.264       .  A
C1548      C1634   1.470       .  S
O1549      C1554   1.275       .  A
O1550      C1552   1.268       .  A
C1551      O1553   1.279       .  A
C1551      C1592   1.525       .  S
C1552      C1581   1.496       .  S
C1554      C1648   1.487       .  S
Fe1555     O1571   2.049       .  S
Fe1555     O1561   2.101       .  S
Fe1555     O1568   2.143       .  S
Fe1555     O1560   2.060       .  S
Fe1555     O1566   1.971       .  S
Fe1556     O1559   2.032       .  S
Fe1556     O1563   2.090       .  S
Fe1556     O1567   2.063       .  S
Fe1556     O1572   2.096       .  S
Fe1556     O1566   1.967       .  S
Fe1557     O1575   2.085       .  S
Fe1557     O1562   2.077       .  S
Fe1557     O1569   2.073       .  S
Fe1557     O1558   2.074       .  S
Fe1557     O1566   1.968       .  S
O1558      C1565   1.274       .  A
O1559      C1573   1.268       .  A
O1560      C1565   1.270       .  A
O1561      C1564   1.278       .  A
O1562      C1574   1.277       .  A
O1563      C1576   1.273       .  A
C1564      O1569   1.273       .  A
C1564      C1732   1.493       .  S
C1565      C1718   1.475       .  S
O1567      C1570   1.272       .  A
O1568      C1570   1.286       .  A
C1570      C1609   1.500       .  S
O1571      C1576   1.262       .  A
O1572      C1574   1.271       .  A
C1573      O1575   1.274       .  A
C1573      C1662   1.484       .  S
C1574      C1679   1.489       .  S
C1576      C1620   1.490       .  S
C1577      C1578   1.396       .  A
C1577      C1582   1.407       .  A
C1577      H1584   0.987       .  S
C1578      C1579   1.521       .  A
C1579      C1580   1.421       .  A
C1579      N1586   1.436       .  S
C1580      C1581   1.378       .  A
C1580      H1585   1.086       .  S
C1581      C1582   1.376       .  A
C1582      N1583   1.419       .  S
N1583      O1587   1.261       .  A
N1583      O1588   1.255       .  A
N1586      O1590   1.260       .  A
N1586      O1589   1.265       .  A
C1591      C1592   1.401       .  A
C1591      C1596   1.423       .  A
C1591      H1598   1.084       .  S
C1592      C1593   1.411       .  A
C1593      C1594   1.424       .  A
C1593      N1600   1.430       .  S
C1594      C1595   1.427       .  A
C1594      H1599   1.015       .  S
C1595      C1596   1.469       .  A
C1596      N1597   1.441       .  S
N1597      O1601   1.256       .  A
N1597      O1602   1.261       .  A
N1600      O1604   1.262       .  A
N1600      O1603   1.262       .  A
C1605      C1606   1.446       .  A
C1605      C1610   1.407       .  A
C1605      H1612   1.041       .  S
C1607      C1608   1.439       .  A
C1607      N1614   1.425       .  S
C1608      C1609   1.397       .  A
C1608      H1613   1.083       .  S
C1610      N1611   1.435   1_565  S
N1611      O1615   1.260   1_545  A
N1614      O1618   1.264       .  A
C1619      C1624   1.415       .  A
C1619      H1626   1.087       .  S
C1620      C1621   1.391       .  A
C1621      C1622   1.405       .  A
C1621      N1628   1.428       .  S
C1622      H1627   1.064       .  S
C1623      C1624   1.499       .  A
C1624      N1625   1.432       .  S
N1625      O1629   1.262       .  A
N1625      O1630   1.252       .  A
N1628      O1632   1.261       .  A
N1628      O1631   1.261       .  A
C1633      C1634   1.380       .  A
C1633      C1638   1.423       .  A
C1633      H1640   1.084       .  S
C1634      C1635   1.374       .  A
C1635      C1636   1.389       .  A
C1635      N1642   1.429       .  S
C1636      C1637   1.447       .  A
C1636      H1641   1.034       .  S
C1637      C1638   1.444       .  A
N1639      O1643   1.263       .  A
N1642      O1646   1.260       .  A
N1642      O1645   1.261       .  A
C1647      C1648   1.396       .  A
C1648      C1649   1.407       .  A
C1649      C1650   1.425       .  A
C1649      N1656   1.443       .  S
C1650      C1651   1.458       .  A
C1650      H1655   1.037       .  S
C1652      N1653   1.451       .  S
N1653      O1657   1.253       .  A
N1656      O1660   1.260       .  A
N1656      O1659   1.263       .  A
C1661      C1666   1.417       .  A
C1661      H1668   1.085       .  S
C1662      C1663   1.379       .  A
C1663      C1664   1.409       .  A
C1663      N1670   1.437       .  S
C1664      H1669   1.035       .  S
C1665      C1666   1.471       .  A
C1666      N1667   1.430       .  S
N1667      O1671   1.249       .  A
N1667      O1672   1.263       .  A
N1670      O1674   1.258       .  A
N1670      O1673   1.260       .  A
C1675      C1676   1.441       .  A
C1675      C1680   1.421       .  A
C1675      H1682   1.050       .  S
C1677      C1678   1.406       .  A
C1677      N1684   1.436   1_556  S
C1678      C1679   1.357       .  A
C1678      H1683   1.089       .  S
C1680      N1681   1.430       .  S
N1681      O1685   1.261       .  A
N1681      O1686   1.261       .  A
N1684      O1688   1.262       .  A
N1684      O1687   1.260       .  A
C1689      C1690   1.395       .  A
C1689      C1694   1.419       .  A
C1689      H1696   1.084       .  S
C1690      C1691   1.385       .  A
C1691      C1692   1.402       .  A
C1692      C1693   1.411       .  A
C1693      C1694   1.480       .  A
C1694      N1695   1.436       .  S
N1695      O1699   1.260       .  A
N1695      O1700   1.261       .  A
N1698      O1702   1.260       .  A
C1703      C1704   1.450       .  A
C1703      C1708   1.401       .  A
C1703      H1710   1.041       .  S
C1704      C1705   1.487       .  A
C1705      C1706   1.420       .  A
C1706      C1707   1.375       .  A
C1706      H1711   1.086       .  S
C1707      C1708   1.383       .  A
C1708      N1709   1.436       .  S
N1709      O1713   1.261       .  A
N1709      O1714   1.260       .  A
N1712      O1716   1.261   1_655  A
N1712      O1715   1.257       .  A
C1717      C1718   1.355       .  A
C1717      C1722   1.386       .  A
C1717      H1724   1.090       .  S
C1718      C1719   1.405       .  A
C1719      C1720   1.433       .  A
C1719      N1726   1.444       .  S
C1720      C1721   1.445       .  A
C1720      H1725   1.066       .  S
C1721      C1722   1.493       .  A
C1722      N1723   1.428       .  S
N1723      O1727   1.262   1_556  A
N1723      O1728   1.262       .  A
N1726      O1730   1.262       .  A
N1726      O1729   1.262       .  A
C1731      C1732   1.357       .  A
C1731      C1736   1.405       .  A
C1731      H1738   1.087       .  S
C1732      C1733   1.394       .  A
C1733      C1734   1.433       .  A
C1733      N1740   1.427       .  S
C1734      C1735   1.420       .  A
C1734      H1739   1.049       .  S
C1735      C1736   1.518       .  A
C1736      N1737   1.441       .  S
N1740      O1744   1.258       .  A
N1740      O1743   1.261       .  A
