geometry optimzed in LAMMPS
_audit_creation_date              2020-11-30 
_audit_creation_method            'lammps2cif' 
_symmetry_space_group_name_H-M    'P1' 
_symmetry_Int_Tables_number       1 
_symmetry_cell_setting            triclinic 
loop_ 
_symmetry_equiv_pos_as_xyz 
  x,y,z 
_cell_length_a                    104.51557991 
_cell_length_b                    104.68172729507009 
_cell_length_c                    41.193648921021754 
_cell_angle_alpha                 89.94521948163973 
_cell_angle_beta                  90.29193961495646 
_cell_angle_gamma                 89.94141379427029 
loop_ 
_atom_site_label 
_atom_site_type_symbol 
_atom_site_fract_x 
_atom_site_fract_y 
_atom_site_fract_z 
_atom_site_charge 
C1          C  0.73769909  0.83074204  0.40762019     0.86200
C2          C  0.72781793  0.82602900  0.38251446    -0.54000
C3          C  0.73284497  0.82359238  0.35252029     0.09200
C4          C  0.74731399  0.82637057  0.35011242     0.20100
C5          C  0.74835108  0.82064550  0.40712904    -0.54700
C6          C  0.75349798  0.81831995  0.37731471     0.09300
C7          C  0.74381458  0.84256139  0.39152954    -0.54300
C8          C  0.74897987  0.84029248  0.36164506     0.09800
H9          H  0.71787764  0.82415744  0.38840069     0.14300
H10         H  0.75135755  0.82460266  0.32569059     0.00100
H11         H  0.75140457  0.81565409  0.42894751     0.14600
H12         H  0.74425375  0.85197054  0.40223885     0.14400
C13         C  0.66232117  0.75527246  0.19052084     0.86200
C14         C  0.66113311  0.76017534  0.15545468    -0.54000
C15         C  0.67234769  0.76445215  0.14234337     0.09200
C16         C  0.68379643  0.76378578  0.16611932     0.20100
C17         C  0.67316565  0.74534585  0.18941826    -0.54700
C18         C  0.68428824  0.74973538  0.17653678     0.09300
C19         C  0.66821318  0.76656025  0.20947052    -0.54300
C20         C  0.67951939  0.77107130  0.19698303     0.09800
H21         H  0.65232656  0.75945654  0.14146161     0.14300
H22         H  0.69285142  0.76720271  0.15520638     0.00100
H23         H  0.67203139  0.73550210  0.19729124     0.14600
H24         H  0.66435937  0.77016342  0.23196264     0.14400
C25         C  0.84731870  0.74838935  0.34019633     0.86200
C26         C  0.84139589  0.73769340  0.31966296    -0.54000
C27         C  0.82957590  0.73382219  0.32961754     0.09200
C28         C  0.82494643  0.74071069  0.36065945     0.20100
C29         C  0.83710906  0.75888171  0.34112431    -0.54700
C30         C  0.82545479  0.75497432  0.35182692     0.09300
C31         C  0.84750920  0.74299734  0.37506278    -0.54300
C32         C  0.83576033  0.73915204  0.38638285     0.09800
H33         H  0.84589943  0.73397391  0.29792076     0.14300
H34         H  0.81537343  0.73751024  0.36879455     0.00100
H35         H  0.83900057  0.76867607  0.33380842     0.14600
H36         H  0.85594548  0.74300789  0.39031744     0.14400
C37         C  0.75815472  0.65935137  0.18083370     0.86200
C38         C  0.76896318  0.66570604  0.20026681    -0.54000
C39         C  0.77284653  0.67737306  0.18877463     0.09200
C40         C  0.76544349  0.68142781  0.15754451     0.20100
C41         C  0.74755190  0.66948493  0.17926908    -0.54700
C42         C  0.75119058  0.68103671  0.16692773     0.09300
C43         C  0.76331109  0.65867497  0.14580231    -0.54300
C44         C  0.76694152  0.67025280  0.13343780     0.09800
H45         H  0.77259521  0.66146999  0.22248907     0.14300
H46         H  0.76852400  0.69061500  0.14680289     0.00100
H47         H  0.73793628  0.66756837  0.18781834     0.14600
H48         H  0.76338681  0.65014710  0.13096337     0.14400
C49         C  0.84107817  0.75028932  0.67932132     0.86200
C50         C  0.84208178  0.74546130  0.64420109    -0.54000
C51         C  0.83083003  0.74094174  0.63144839     0.09200
C52         C  0.81952364  0.74144437  0.65552106     0.20100
C53         C  0.83005944  0.76002989  0.67856394    -0.54700
C54         C  0.81890843  0.75552102  0.66588562     0.09300
C55         C  0.83549512  0.73895718  0.69843769    -0.54300
C56         C  0.82420594  0.73424520  0.68634122     0.09800
H57         H  0.85078444  0.74624501  0.63004211     0.14300
H58         H  0.81041291  0.73785380  0.64502481     0.00100
H59         H  0.83099806  0.76980475  0.68710392     0.14600
H60         H  0.83942402  0.73561152  0.72124439     0.14400
C61         C  0.75685634  0.65969585  0.84109952     0.86200
C62         C  0.76196214  0.65917967  0.87605388    -0.54000
C63         C  0.76545532  0.67077927  0.88875981     0.09200
C64         C  0.76365860  0.68195138  0.86443064     0.20100
C65         C  0.74608334  0.66965046  0.84193583    -0.54700
C66         C  0.74939359  0.68124340  0.85474817     0.09300
C67         C  0.76755370  0.66626543  0.82178285    -0.54300
C68         C  0.77105696  0.67795029  0.83357322     0.09800
H69         H  0.76197044  0.65039812  0.89007084     0.14300
H70         H  0.76674502  0.69132064  0.87414824     0.00100
H71         H  0.73655353  0.66749719  0.83293546     0.14600
H72         H  0.77170662  0.66254832  0.79973333     0.14400
C73         C  0.65689001  0.75313792  0.84924997     0.86200
C74         C  0.66276064  0.76436715  0.83064920    -0.54000
C75         C  0.67446609  0.76818801  0.84189989     0.09200
C76         C  0.67897114  0.76077972  0.87237648     0.20100
C77         C  0.66730425  0.74283378  0.84948117    -0.54700
C78         C  0.67889134  0.74672759  0.86130250     0.09300
C79         C  0.65638207  0.75779431  0.88465762    -0.54300
C80         C  0.66791645  0.76173817  0.89745234     0.09800
H81         H  0.65835515  0.76843392  0.80904964     0.14300
H82         H  0.68846402  0.76401388  0.88104254     0.00100
H83         H  0.66554540  0.73318837  0.84086628     0.14600
H84         H  0.64772209  0.75753864  0.89867042     0.14400
C85         C  0.74393748  0.84485003  0.69568596     0.86200
C86         C  0.73385441  0.83807583  0.71635369    -0.54000
C87         C  0.73000438  0.82641825  0.70484347     0.09200
C88         C  0.73663091  0.82279661  0.67247901     0.20100
C89         C  0.75478030  0.83505166  0.69211832    -0.54700
C90         C  0.75111905  0.82349628  0.67972562     0.09300
C91         C  0.73788725  0.84562648  0.66158449    -0.54300
C92         C  0.73415512  0.83409575  0.64911854     0.09800
H93         H  0.73066589  0.84203854  0.73923104     0.14300
H94         H  0.73342624  0.81359588  0.66215702     0.00100
H95         H  0.76455885  0.83720034  0.69920559     0.14600
H96         H  0.73726803  0.85427330  0.64734593     0.14400
O97         O  0.91786612  0.82238569  0.16210322    -0.58100
C98         C  0.91357224  0.80663778  0.24539670     0.74600
O99         O  0.94844848  0.83688411  0.23323825    -0.59200
C100        C  0.92800890  0.82335455  0.14559221     0.74500
C101        C  0.91455950  0.85073477  0.22776977     0.76900
Cd102      Cd  0.92804230  0.82699149  0.21535293     1.37500
O103        O  0.91743153  0.80595110  0.21642108    -0.58100
O104        O  0.91785965  0.84741724  0.19950890    -0.56900
C105        C  0.95460697  0.82653943  0.23631309     0.76900
O106        O  0.91783550  0.84328248  0.25051719    -0.59300
O107        O  0.91666127  0.81661471  0.26082600    -0.57700
O108        O  0.93807745  0.82614340  0.16127137    -0.57700
O109        O  0.94834167  0.81640783  0.23117126    -0.56900
O110        O  0.07060965  0.81486957  0.15599301    -0.58100
C111        C  0.09204076  0.80469465  0.23798239     0.74600
O112        O  0.08258678  0.84748630  0.20059213    -0.59200
C113        C  0.07910676  0.82031715  0.13911601     0.74500
C114        C  0.05038111  0.82602604  0.22642581     0.76900
Cd115      Cd  0.07722822  0.82478866  0.20819417     1.37500
O116        O  0.09074587  0.80565873  0.20750657    -0.58100
O117        O  0.05734443  0.81659976  0.23407679    -0.56900
C118        C  0.09098669  0.84806536  0.22273013     0.76900
O119        O  0.05590364  0.83498256  0.21144810    -0.59300
O120        O  0.08607369  0.81281524  0.25496728    -0.57700
O121        O  0.08682257  0.82744274  0.15434830    -0.57700
O122        O  0.09236697  0.83814470  0.23993474    -0.56900
O123        O  0.20178180  0.91462632  0.18888156    -0.58100
C124        C  0.18282831  0.93048388  0.11932261     0.74600
O125        O  0.16456258  0.91474174  0.17460046    -0.59200
C126        C  0.20306733  0.91397288  0.21939561     0.74500
C127        C  0.18365407  0.95543453  0.20700223     0.76900
Cd128      Cd  0.18256714  0.92863081  0.18929879     1.37500
O129        O  0.19084781  0.92365074  0.13468213    -0.58100
O130        O  0.19313613  0.94952145  0.19533100    -0.56900
C131        C  0.16019853  0.91323740  0.20286140     0.76900
O132        O  0.17373266  0.94881866  0.21206102    -0.59300
O133        O  0.17479498  0.93652603  0.13636976    -0.57700
O134        O  0.19524866  0.92050505  0.23584572    -0.57700
O135        O  0.16603144  0.91908444  0.22533037    -0.56900
O136        O  0.17368079  0.07400126  0.11584705    -0.58100
C137        C  0.20311446  0.09187268  0.20296378     0.74600
O138        O  0.17188945  0.09790140  0.16629011    -0.59200
C139        C  0.18394023  0.07500212  0.09995902     0.74500
C140        C  0.18318209  0.05114433  0.19442475     0.76900
Cd141      Cd  0.18318807  0.07738035  0.17028502     1.37500
O142        O  0.20355722  0.08934211  0.17295438    -0.58100
O143        O  0.19340710  0.05692126  0.18724963    -0.56900
C144        C  0.16175882  0.09452283  0.18057508     0.76900
O145        O  0.17299603  0.05757973  0.19156427    -0.59300
O146        O  0.19367447  0.08730589  0.21827565    -0.57700
O147        O  0.19399487  0.07672586  0.11657396    -0.57700
O148        O  0.16148378  0.08311865  0.19085077    -0.56900
O149        O  0.92662871  0.19277336  0.11739366    -0.58100
C150        C  0.91031786  0.20011282  0.19980327     0.74600
O151        O  0.91630244  0.16182217  0.20011211    -0.59200
C152        C  0.92706655  0.18305925  0.09909046     0.74500
C153        C  0.95222556  0.17836786  0.18438576     0.76900
Cd154      Cd  0.92504881  0.18025162  0.16840109     1.37500
O155        O  0.91127137  0.19925784  0.16927348    -0.58100
O156        O  0.94590816  0.18856283  0.18832031    -0.56900
C157        C  0.90746748  0.15938245  0.17984362     0.76900
O158        O  0.94586121  0.16878549  0.17492331    -0.59300
O159        O  0.91683485  0.19218954  0.21628709    -0.57700
O160        O  0.92664935  0.17229133  0.11297297    -0.57700
O161        O  0.90705507  0.16638154  0.15487283    -0.56900
O162        O  0.09230281  0.19925416  0.16629788    -0.58100
C163        C  0.07686510  0.18517625  0.09366310     0.74600
O164        O  0.08227253  0.15899599  0.16002141    -0.59200
C165        C  0.09099171  0.20171592  0.19619984     0.74500
C166        C  0.04893706  0.18061634  0.18022075     0.76900
Cd167      Cd  0.07610477  0.18199137  0.16369066     1.37500
O168        O  0.07158546  0.19335255  0.11178585    -0.58100
O169        O  0.05443902  0.19092988  0.17262766    -0.56900
C170        C  0.09125606  0.15973192  0.18070009     0.76900
O171        O  0.05609364  0.17088184  0.18202816    -0.59300
O172        O  0.08203161  0.17579014  0.10792173    -0.57700
O173        O  0.08238477  0.19546945  0.21084113    -0.57700
O174        O  0.09255634  0.17039180  0.19474536    -0.56900
O175        O  0.81046724  0.93031972  0.16945467    -0.58100
C176        C  0.80329767  0.90758151  0.25049482     0.74600
O177        O  0.83605068  0.91373195  0.25793385    -0.59200
C178        C  0.81940663  0.92577803  0.15235324     0.74500
C179        C  0.81865851  0.95301906  0.23953475     0.76900
Cd180      Cd  0.82113063  0.92605034  0.22268694     1.37500
O181        O  0.80802756  0.90614885  0.22249602    -0.58100
O182        O  0.80900710  0.94612646  0.23350827    -0.56900
C183        C  0.84591466  0.91590648  0.24107126     0.76900
O184        O  0.82930925  0.94728400  0.24012799    -0.59300
O185        O  0.80655634  0.91766275  0.26539917    -0.57700
O186        O  0.82874931  0.92104354  0.16775754    -0.57700
O187        O  0.84447234  0.92351457  0.21747381    -0.56900
O188        O  0.79574906  0.08768159  0.21267036    -0.58100
C189        C  0.81392533  0.07277403  0.13723920     0.74600
O190        O  0.83787178  0.08352952  0.22439292    -0.59200
C191        C  0.79755357  0.09100560  0.24183274     0.74500
C192        C  0.81505293  0.04923853  0.22643305     0.76900
Cd193      Cd  0.81602860  0.07593108  0.20634658     1.37500
O194        O  0.80498789  0.07779139  0.15353366    -0.58100
O195        O  0.80606637  0.05468260  0.21110418    -0.56900
C196        C  0.83762988  0.09333627  0.20624414     0.76900
O197        O  0.82442065  0.05629228  0.23434638    -0.59300
O198        O  0.82363798  0.06901087  0.15309933    -0.57700
O199        O  0.80756180  0.08668474  0.25540834    -0.57700
O200        O  0.82772938  0.09472336  0.18890225    -0.56900
O201        O  0.79475512  0.91592444  0.83179939    -0.58100
C202        C  0.81687355  0.92523997  0.90713484     0.74600
O203        O  0.82534990  0.90368048  0.83449313    -0.59200
C204        C  0.79517011  0.91395269  0.80152480     0.74500
C205        C  0.81677508  0.95195267  0.81899816     0.76900
Cd206      Cd  0.81622850  0.92517761  0.83682754     1.37500
O207        O  0.80680723  0.92242773  0.89152126    -0.58100
O208        O  0.80801426  0.94713596  0.83613348    -0.56900
C209        C  0.83637342  0.90687806  0.82497016     0.76900
O210        O  0.82527870  0.94429681  0.80904732    -0.59300
O211        O  0.82653631  0.92808831  0.89026706    -0.57700
O212        O  0.80509243  0.91785563  0.78704906    -0.57700
O213        O  0.83809078  0.91867931  0.81967347    -0.56900
O214        O  0.80694596  0.07278051  0.87430270    -0.58100
C215        C  0.79889491  0.08960187  0.79672860     0.74600
O216        O  0.83396066  0.08596872  0.78450953    -0.59200
C217        C  0.81660476  0.07350977  0.89288085     0.74500
C218        C  0.81993238  0.04758461  0.80660992     0.76900
Cd219      Cd  0.81940205  0.07450307  0.82333974     1.37500
O220        O  0.80262119  0.09091024  0.82581733    -0.58100
O221        O  0.80970992  0.05401171  0.80691024    -0.56900
C222        C  0.84134180  0.09009086  0.80662085     0.76900
O223        O  0.83009648  0.05371433  0.81249131    -0.59300
O224        O  0.80470791  0.08132292  0.77993462    -0.57700
O225        O  0.82734255  0.07461797  0.87919873    -0.57700
O226        O  0.83872918  0.08663545  0.83519240    -0.56900
O227        O  0.19913911  0.91586387  0.80071087    -0.58100
C228        C  0.18123942  0.93220066  0.87409846     0.74600
O229        O  0.16776905  0.94781864  0.78653433    -0.59200
C230        C  0.19865106  0.91395296  0.77038486     0.74500
C231        C  0.15899771  0.90914185  0.80075044     0.76900
Cd232      Cd  0.17912183  0.92808612  0.80478954     1.37500
O233        O  0.19103640  0.92998107  0.85702358    -0.58100
O234        O  0.16875805  0.90802441  0.81873552    -0.56900
C235        C  0.17781429  0.95418439  0.78089073     0.76900
O236        O  0.15834973  0.91924335  0.78376773    -0.59300
O237        O  0.17072289  0.93297817  0.85893134    -0.57700
O238        O  0.18936435  0.91909243  0.75536323    -0.57700
O239        O  0.18829519  0.94833335  0.78495489    -0.56900
O240        O  0.19985003  0.08726153  0.77831235    -0.58100
C241        C  0.18215979  0.07475675  0.85455182     0.74600
O242        O  0.15965912  0.08549094  0.75699653    -0.59200
C243        C  0.19835509  0.09049226  0.74894119     0.74500
C244        C  0.17905892  0.04981851  0.76599269     0.76900
Cd245      Cd  0.17900120  0.07657105  0.78484712     1.37500
O246        O  0.18889120  0.08230400  0.83770295    -0.58100
O247        O  0.18915400  0.05575153  0.77374947    -0.56900
C248        C  0.15640574  0.09271038  0.78019376     0.76900
O249        O  0.16889692  0.05640632  0.76511609    -0.59300
O250        O  0.17427823  0.06786217  0.83905047    -0.57700
O251        O  0.18805036  0.08690279  0.73554236    -0.57700
O252        O  0.16341879  0.09226277  0.80522252    -0.56900
O253        O  0.91167117  0.20379094  0.77486622    -0.58100
C254        C  0.92587821  0.18564292  0.85485101     0.74600
O255        O  0.91449697  0.16209725  0.76359589    -0.59200
C256        C  0.90654734  0.20022732  0.74844670     0.74500
C257        C  0.94900516  0.18275409  0.76391703     0.76900
Cd258      Cd  0.92256927  0.18287049  0.78572056     1.37500
O259        O  0.91840045  0.19290792  0.83902377    -0.58100
O260        O  0.94333302  0.19296536  0.77191180    -0.56900
C261        C  0.90638756  0.16043813  0.78599039     0.76900
O262        O  0.94222372  0.17273879  0.76381383    -0.59300
O263        O  0.93204890  0.17750160  0.83851379    -0.57700
O264        O  0.90958947  0.18919874  0.73863074    -0.57700
O265        O  0.90610082  0.16889700  0.80784036    -0.56900
O266        O  0.06383996  0.18986536  0.83284491    -0.58100
C267        C  0.08619293  0.20270682  0.74537380     0.74600
O268        O  0.07966664  0.16127049  0.79608635    -0.59200
C269        C  0.07403598  0.18764294  0.84859749     0.74500
C270        C  0.04531571  0.18082664  0.76219250     0.76900
Cd271      Cd  0.07234275  0.18272735  0.77959798     1.37500
O272        O  0.08493315  0.20263335  0.77591968    -0.58100
O273        O  0.05149404  0.19117721  0.76023541    -0.56900
C274        C  0.08667109  0.15916509  0.77176220     0.76900
O275        O  0.05171942  0.17112421  0.77080999    -0.59300
O276        O  0.08055854  0.19381293  0.73016191    -0.57700
O277        O  0.08350954  0.18393717  0.83213082    -0.57700
O278        O  0.08631590  0.16752499  0.74954015    -0.56900
O279        O  0.91282099  0.79986425  0.82230047    -0.58100
C280        C  0.92700194  0.81741101  0.90088643     0.74600
O281        O  0.94578909  0.82980009  0.81660296    -0.59200
C282        C  0.91050350  0.80165464  0.79242186     0.74500
C283        C  0.90737990  0.84138663  0.82674745     0.76900
Cd284      Cd  0.92486696  0.81987821  0.83116188     1.37500
O285        O  0.92160984  0.80877079  0.88416143    -0.58100
O286        O  0.91631865  0.84019287  0.80623729    -0.56900
C287        C  0.95196549  0.81941617  0.81440547     0.76900
O288        O  0.90695050  0.83300224  0.84876678    -0.59300
O289        O  0.93154479  0.82675291  0.88523553    -0.57700
O290        O  0.91539456  0.81156368  0.77993257    -0.57700
O291        O  0.94549638  0.80931114  0.81810980    -0.56900
O292        O  0.08713825  0.79681025  0.81722588    -0.58100
C293        C  0.07833852  0.81727513  0.89455790     0.74600
O294        O  0.08162862  0.83980843  0.80784882    -0.59200
C295        C  0.08863175  0.79770423  0.78683306     0.74500
C296        C  0.04880181  0.81725408  0.81137053     0.76900
Cd297      Cd  0.07632659  0.81747968  0.82433852     1.37500
O298        O  0.07838322  0.80705996  0.87820321    -0.58100
O299        O  0.05475916  0.80773310  0.82276509    -0.56900
C300        C  0.09365552  0.83819142  0.80895652     0.76900
O301        O  0.05560847  0.82687117  0.80444972    -0.59300
O302        O  0.07741482  0.82752683  0.87849960    -0.57700
O303        O  0.08359709  0.80736158  0.77324135    -0.57700
O304        O  0.09746519  0.82706320  0.81610267    -0.56900
C305        C  0.25575332  0.16112125  0.30876329     0.86200
C306        C  0.26141561  0.16042811  0.34347314    -0.54000
C307        C  0.26543604  0.17200176  0.35536891     0.09200
C308        C  0.26384207  0.18310855  0.33101881     0.20100
C309        C  0.24533085  0.17144979  0.31117359    -0.54700
C310        C  0.24956863  0.18287656  0.32263481     0.09300
C311        C  0.26640715  0.16720253  0.28848071    -0.54300
C312        C  0.27063869  0.17875839  0.29963772     0.09800
H313        H  0.26136061  0.15196534  0.35859230     0.14300
H314        H  0.26715231  0.19244429  0.34067234     0.00100
H315        H  0.23538172  0.16982168  0.30460318     0.14600
H316        H  0.26980276  0.16294248  0.26609672     0.14400
C317        C  0.34527747  0.24755723  0.14781516     0.86200
C318        C  0.34545377  0.24320605  0.11226583    -0.54000
C319        C  0.33380417  0.23950502  0.10039746     0.09200
C320        C  0.32292957  0.24028284  0.12566251     0.20100
C321        C  0.33479640  0.25788363  0.14919867    -0.54700
C322        C  0.32306267  0.25418482  0.13779744     0.09300
C323        C  0.33940169  0.23624558  0.16654825    -0.54300
C324        C  0.32762822  0.23249654  0.15535822     0.09800
H325        H  0.35395469  0.24367355  0.09725100     0.14300
H326        H  0.31356029  0.23702611  0.11604748     0.00100
H327        H  0.33667107  0.26740656  0.15843990     0.14600
H328        H  0.34341855  0.23227944  0.18860492     0.14400
C329        C  0.15888615  0.25529167  0.30692750     0.86200
C330        C  0.16554216  0.26593682  0.28754934    -0.54000
C331        C  0.17692549  0.26987312  0.30037153     0.09200
C332        C  0.18053792  0.26308481  0.33236722     0.20100
C333        C  0.16914832  0.24483940  0.31007226    -0.54700
C334        C  0.18043528  0.24881865  0.32351551     0.09300
C335        C  0.15763516  0.26068210  0.34144569    -0.54300
C336        C  0.16895527  0.26459391  0.35548507     0.09800
H337        H  0.16222630  0.26970779  0.26456666     0.14300
H338        H  0.18977636  0.26645311  0.34246000     0.00100
H339        H  0.16758808  0.23509530  0.30193518     0.14600
H340        H  0.14861579  0.26031408  0.35427351     0.14400
C341        C  0.24849925  0.34315114  0.15187594     0.86200
C342        C  0.23718441  0.33754378  0.17082166    -0.54000
C343        C  0.23282831  0.32605896  0.15945687     0.09200
C344        C  0.23988387  0.32155289  0.12856578     0.20100
C345        C  0.25843746  0.33235921  0.15096717    -0.54700
C346        C  0.25398424  0.32112318  0.13884517     0.09300
C347        C  0.24353826  0.34408340  0.11657319    -0.54300
C348        C  0.23903095  0.33274788  0.10399708     0.09800
H349        H  0.23376038  0.34181738  0.19314453     0.14300
H350        H  0.23631520  0.31231357  0.11918828     0.00100
H351        H  0.26818638  0.33345000  0.15984254     0.14600
H352        H  0.24401832  0.35273197  0.10229901     0.14400
C353        C  0.25161852  0.15942989  0.64507328     0.86200
C354        C  0.26247614  0.16507162  0.66574715    -0.54000
C355        C  0.26673176  0.17675861  0.65564295     0.09200
C356        C  0.25997560  0.18156781  0.62442282     0.20100
C357        C  0.24142286  0.16990102  0.64374828    -0.54700
C358        C  0.24568249  0.18153220  0.63355594     0.09300
C359        C  0.25697400  0.15910564  0.61040909    -0.54300
C360        C  0.26133101  0.17065990  0.59902897     0.09800
H361        H  0.26597457  0.16050435  0.68775896     0.14300
H362        H  0.26350094  0.19103901  0.61644196     0.00100
H363        H  0.23156111  0.16816630  0.65068337     0.14600
H364        H  0.25665613  0.15068432  0.59536803     0.14400
C365        C  0.34011224  0.24793612  0.80628324     0.86200
C366        C  0.33447020  0.23650968  0.78750416    -0.54000
C367        C  0.32345358  0.23158532  0.80032548     0.09200
C368        C  0.31927818  0.23850163  0.83185970     0.20100
C369        C  0.32888455  0.25743393  0.80818005    -0.54700
C370        C  0.31807582  0.25253556  0.82164006     0.09300
C371        C  0.34186603  0.24306303  0.84120446    -0.54300
C372        C  0.33098866  0.23828541  0.85515545     0.09800
H373        H  0.33796850  0.23338537  0.76422350     0.14300
H374        H  0.31042896  0.23462306  0.84279559     0.00100
H375        H  0.32946221  0.26726457  0.79982858     0.14600
H376        H  0.35078934  0.24427554  0.85443966     0.14400
C377        C  0.15642087  0.25615476  0.64726521     0.86200
C378        C  0.15620577  0.26121791  0.61228107    -0.54000
C379        C  0.16786192  0.26507442  0.60094874     0.09200
C380        C  0.17873301  0.26382458  0.62626860     0.20100
C381        C  0.16683847  0.24582021  0.64757099    -0.54700
C382        C  0.17843605  0.24965929  0.63612009     0.09300
C383        C  0.16237446  0.26702861  0.66747614    -0.54300
C384        C  0.17415176  0.27111890  0.65700218     0.09800
H385        H  0.14770401  0.26089297  0.59703097     0.14300
H386        H  0.18805090  0.26694202  0.61638322     0.00100
H387        H  0.16508264  0.23617337  0.65617973     0.14600
H388        H  0.15821136  0.27041478  0.68975773     0.14400
C389        C  0.24504710  0.34288192  0.81631119     0.86200
C390        C  0.23919696  0.34306788  0.85042826    -0.54000
C391        C  0.23499883  0.33141493  0.86110113     0.09200
C392        C  0.23673646  0.32057998  0.83602679     0.20100
C393        C  0.25535295  0.33238310  0.81785847    -0.54700
C394        C  0.25110547  0.32076208  0.82829235     0.09300
C395        C  0.23453510  0.33706919  0.79454801    -0.54300
C396        C  0.23030014  0.32534356  0.80443593     0.09800
H397        H  0.23930246  0.35149974  0.86577726     0.14300
H398        H  0.23324455  0.31114263  0.84451973     0.00100
H399        H  0.26521665  0.33402817  0.81081007     0.14600
H400        H  0.23102684  0.34130220  0.77227212     0.14400
C401        C  0.16071760  0.74877573  0.33652518     0.86200
C402        C  0.15957107  0.74213727  0.36979168    -0.54000
C403        C  0.17090675  0.73749483  0.38173970     0.09200
C404        C  0.18232707  0.73948532  0.35852882     0.20100
C405        C  0.17125335  0.75877624  0.34165138    -0.54700
C406        C  0.18252906  0.75398399  0.35298152     0.09300
C407        C  0.16673454  0.73866350  0.31443656    -0.54300
C408        C  0.17812750  0.73373292  0.32536116     0.09800
H409        H  0.15098921  0.74206127  0.38436328     0.14300
H410        H  0.19144129  0.73570378  0.36852025     0.00100
H411        H  0.16988810  0.76888581  0.33665912     0.14600
H412        H  0.16250291  0.73624851  0.29116085     0.14400
C413        C  0.24730159  0.65926951  0.17001322     0.86200
C414        C  0.24109041  0.65844384  0.13617652    -0.54000
C415        C  0.23662113  0.66987171  0.12449632     0.09200
C416        C  0.23843027  0.68110510  0.14835227     0.20100
C417        C  0.25745925  0.66985889  0.16677893    -0.54700
C418        C  0.25285797  0.68123798  0.15537596     0.09300
C419        C  0.23696443  0.66536905  0.19164429    -0.54300
C420        C  0.23244868  0.67686754  0.18078430     0.09800
H421        H  0.24123159  0.64979771  0.12162475     0.14300
H422        H  0.23471386  0.69033788  0.13893118     0.00100
H423        H  0.26743049  0.66849406  0.17350433     0.14600
H424        H  0.23382238  0.66152065  0.21459217     0.14400
C425        C  0.34014004  0.75404043  0.17157453     0.86200
C426        C  0.33514003  0.76534955  0.19159217    -0.54000
C427        C  0.32410825  0.77075065  0.17986630     0.09200
C428        C  0.31926521  0.76447170  0.14809531     0.20100
C429        C  0.32869209  0.74486995  0.16885348    -0.54700
C430        C  0.31783523  0.75033238  0.15684532     0.09300
C431        C  0.34155129  0.75934407  0.13681676    -0.54300
C432        C  0.33062845  0.76471574  0.12404297     0.09800
H433        H  0.33948048  0.76816250  0.21449726     0.14300
H434        H  0.31032581  0.76881339  0.13856501     0.00100
H435        H  0.32912399  0.73486288  0.17581505     0.14600
H436        H  0.34998036  0.75786120  0.12224055     0.14400
C437        C  0.25449354  0.84463958  0.33047310     0.86200
C438        C  0.26554720  0.83855715  0.31186309    -0.54000
C439        C  0.26993360  0.82733852  0.32463727     0.09200
C440        C  0.26293329  0.82337305  0.35623249     0.20100
C441        C  0.24440168  0.83406296  0.33317375    -0.54700
C442        C  0.24861130  0.82292523  0.34699756     0.09300
C443        C  0.25949345  0.84610028  0.36553409    -0.54300
C444        C  0.26383734  0.83498457  0.37964371     0.09800
H445        H  0.26900064  0.84242650  0.28905913     0.14300
H446        H  0.26672837  0.81437323  0.36648708     0.00100
H447        H  0.23466770  0.83545478  0.32461415     0.14600
H448        H  0.25850357  0.85484032  0.37908783     0.14400
C449        C  0.15836022  0.74794649  0.67444509     0.86200
C450        C  0.16400950  0.73658187  0.69319316    -0.54000
C451        C  0.17544853  0.73217602  0.68158325     0.09200
C452        C  0.17993894  0.73942426  0.65085415     0.20100
C453        C  0.16913122  0.75785142  0.67369939    -0.54700
C454        C  0.18048318  0.75348945  0.66171029     0.09300
C455        C  0.15739845  0.74326267  0.63909828    -0.54300
C456        C  0.16864144  0.73880619  0.62620585     0.09800
H457        H  0.15972810  0.73309637  0.71544131     0.14300
H458        H  0.18911501  0.73580784  0.64133211     0.00100
H459        H  0.16776591  0.76760463  0.68196921     0.14600
H460        H  0.14878817  0.74405674  0.62477657     0.14400
C461        C  0.24557763  0.65799733  0.83348584     0.86200
C462        C  0.23454467  0.66391400  0.81404651    -0.54000
C463        C  0.23062313  0.67557433  0.82490720     0.09200
C464        C  0.23778891  0.68008202  0.85572318     0.20100
C465        C  0.25593355  0.66832091  0.83449440    -0.54700
C466        C  0.25197980  0.67998290  0.84543618     0.09300
C467        C  0.24068226  0.65745332  0.86856660    -0.54300
C468        C  0.23659837  0.66898278  0.88075095     0.09800
H469        H  0.23076689  0.65962407  0.79198832     0.14300
H470        H  0.23437117  0.68950653  0.86429399     0.00100
H471        H  0.26567646  0.66638919  0.82691250     0.14600
H472        H  0.24108656  0.64890522  0.88320174     0.14400
C473        C  0.34140600  0.75590010  0.83145697     0.86200
C474        C  0.34195194  0.76046985  0.86682762    -0.54000
C475        C  0.33038367  0.76400520  0.87934016     0.09200
C476        C  0.31919902  0.76277766  0.85487339     0.20100
C477        C  0.33117941  0.74536771  0.83099468    -0.54700
C478        C  0.31962599  0.74869406  0.84394481     0.09300
C479        C  0.33503558  0.76695550  0.81274863    -0.54300
C480        C  0.32333939  0.77054871  0.82460275     0.09800
H481        H  0.35068237  0.76028429  0.88123971     0.14300
H482        H  0.30993638  0.76586249  0.86524182     0.00100
H483        H  0.33310469  0.73600251  0.82087574     0.14600
H484        H  0.33884584  0.77106110  0.79071650     0.14400
C485        C  0.25276899  0.84438158  0.67143296     0.86200
C486        C  0.25849926  0.84529177  0.63734220    -0.54000
C487        C  0.26273613  0.83392454  0.62509082     0.09200
C488        C  0.26112074  0.82258132  0.64877421     0.20100
C489        C  0.24254033  0.83387429  0.66889369    -0.54700
C490        C  0.24669440  0.82248872  0.65639572     0.09300
C491        C  0.26331489  0.83820738  0.69239121    -0.54300
C492        C  0.26766556  0.82674257  0.68094523     0.09800
H493        H  0.25829692  0.85404627  0.62316886     0.14300
H494        H  0.26491779  0.81352146  0.63882177     0.00100
H495        H  0.23281185  0.83546972  0.67696732     0.14600
H496        H  0.26647916  0.84189940  0.71559595     0.14400
O497        O  0.69554637  0.42278180  0.36443957    -0.58100
C498        C  0.70209114  0.41374654  0.27176182     0.74600
O499        O  0.66301772  0.41947573  0.28897651    -0.59200
C500        C  0.68689913  0.42738445  0.38242824     0.74500
C501        C  0.68461618  0.45377403  0.29636689     0.76900
Cd502      Cd  0.68399043  0.42676838  0.31260943     1.37500
O503        O  0.70451188  0.41608926  0.30131792    -0.58100
O504        O  0.69468451  0.44724124  0.30039034    -0.56900
C505        C  0.66260239  0.40928672  0.30563614     0.76900
O506        O  0.67415950  0.44771820  0.29838695    -0.59300
O507        O  0.69157247  0.41797839  0.26079496    -0.57700
O508        O  0.67717447  0.43192408  0.36805433    -0.57700
O509        O  0.67182987  0.40747793  0.32505683    -0.56900
O510        O  0.69659530  0.57913730  0.37942334    -0.58100
C511        C  0.70704834  0.58999912  0.29081245     0.74600
O512        O  0.67850060  0.55734289  0.29754490    -0.59200
C513        C  0.68664570  0.57666256  0.39558955     0.74500
C514        C  0.66523651  0.59415764  0.31179622     0.76900
Cd515      Cd  0.68655730  0.57704155  0.32526938     1.37500
O516        O  0.70701480  0.58887977  0.32140588    -0.58100
O517        O  0.67631172  0.59796790  0.31950967    -0.56900
C518        C  0.68714122  0.54998357  0.30842439     0.76900
O519        O  0.66382091  0.58216509  0.30968899    -0.59300
O520        O  0.69798186  0.58449194  0.27582733    -0.57700
O521        O  0.67659329  0.57451678  0.37928467    -0.57700
O522        O  0.69568384  0.55521753  0.32567846    -0.56900
O523        O  0.41092492  0.69903579  0.30661364    -0.58100
C524        C  0.42607988  0.68336760  0.37727757     0.74600
O525        O  0.41499328  0.66417606  0.27338140    -0.59200
C526        C  0.41010601  0.70015041  0.27610370     0.74500
C527        C  0.45317047  0.68253282  0.29105392     0.76900
Cd528      Cd  0.42595689  0.68078772  0.30746177     1.37500
O529        O  0.41963537  0.69090491  0.35950051    -0.58100
O530        O  0.44714303  0.69173633  0.30368376    -0.56900
C531        C  0.41175329  0.65709004  0.29682703     0.76900
O532        O  0.44654988  0.67274901  0.28453296    -0.59300
O533        O  0.43239887  0.67480661  0.36270274    -0.57700
O534        O  0.41702071  0.69261465  0.25973844    -0.57700
O535        O  0.41539915  0.66072649  0.32458095    -0.56900
O536        O  0.57606884  0.69123217  0.37032779    -0.58100
C537        C  0.59116144  0.70112481  0.28497917     0.74600
O538        O  0.58507789  0.66089044  0.28932300    -0.59200
C539        C  0.57423841  0.68105098  0.38626406     0.74500
C540        C  0.54969842  0.68099857  0.29602583     0.76900
Cd541      Cd  0.57660134  0.68090625  0.31619679     1.37500
O542        O  0.58867980  0.70121117  0.31501886    -0.58100
O543        O  0.55586717  0.69114448  0.30169560    -0.56900
C544        C  0.59494072  0.66032838  0.30739837     0.76900
O545        O  0.55606238  0.67072115  0.29805995    -0.59300
O546        O  0.58635701  0.69200828  0.26877746    -0.57700
O547        O  0.57312302  0.67092696  0.36976822    -0.57700
O548        O  0.59601981  0.66906183  0.32836700    -0.56900
O549        O  0.30011852  0.41231105  0.29906359    -0.58100
C550        C  0.32036135  0.42365046  0.37748035     0.74600
O551        O  0.34118837  0.41588627  0.27811695    -0.59200
C552        C  0.30184691  0.40918175  0.26973465     0.74500
C553        C  0.32073860  0.45039088  0.29175818     0.76900
Cd554      Cd  0.32134247  0.42304962  0.30701088     1.37500
O555        O  0.32881494  0.42954982  0.36148184    -0.58100
O556        O  0.31118148  0.44447394  0.30296498    -0.56900
C557        C  0.34411398  0.40732564  0.29862850     0.76900
O558        O  0.33048059  0.44360517  0.28582035    -0.59300
O559        O  0.31214968  0.41753674  0.36091729    -0.57700
O560        O  0.31230043  0.41279295  0.25743666    -0.57700
O561        O  0.33661675  0.40615816  0.32242435    -0.56900
O562        O  0.31100969  0.57048480  0.35664023    -0.58100
C563        C  0.30197792  0.58984022  0.27106461     0.74600
O564        O  0.34464412  0.57941060  0.30922001    -0.59200
C565        C  0.31848022  0.57743637  0.37319332     0.74500
C566        C  0.32178630  0.54718787  0.28881204     0.76900
Cd567      Cd  0.32153040  0.57466344  0.30353752     1.37500
O568        O  0.30351544  0.58991315  0.30157293    -0.58100
O569        O  0.31155746  0.55361814  0.29005219    -0.56900
C570        C  0.34497665  0.58824162  0.28823483     0.76900
O571        O  0.33199162  0.55349814  0.29266373    -0.59300
O572        O  0.30917778  0.58233485  0.25534181    -0.57700
O573        O  0.32704437  0.58322883  0.35749748    -0.57700
O574        O  0.33473546  0.59009898  0.27235903    -0.56900
O575        O  0.58705624  0.29477343  0.28417944    -0.58100
C576        C  0.57846075  0.31387661  0.36477393     0.74600
O577        O  0.58543769  0.33942350  0.27983655    -0.59200
C578        C  0.59163336  0.29689048  0.25633256     0.74500
C579        C  0.55276196  0.31705282  0.27626101     0.76900
Cd580      Cd  0.57965665  0.31676247  0.29482815     1.37500
O581        O  0.58630751  0.30753436  0.34794665    -0.58100
O582        O  0.55818656  0.30748254  0.28908983    -0.56900
C583        C  0.59682098  0.33862859  0.29044091     0.76900
O584        O  0.55994253  0.32648059  0.26994448    -0.59300
O585        O  0.57127676  0.32150167  0.34933335    -0.57700
O586        O  0.59002117  0.30806593  0.24523394    -0.57700
O587        O  0.60000273  0.32796950  0.30244242    -0.56900
O588        O  0.43829942  0.31307517  0.34410472    -0.58100
C589        C  0.41521409  0.29909391  0.25429884     0.74600
O590        O  0.41523384  0.33423962  0.26129167    -0.59200
C591        C  0.42764679  0.31295743  0.35857256     0.74500
C592        C  0.45621343  0.31920721  0.27213674     0.76900
Cd593      Cd  0.42922983  0.31851939  0.28993747     1.37500
O594        O  0.41659613  0.29868036  0.28481428    -0.58100
O595        O  0.44999852  0.30889824  0.27473172    -0.56900
C596        C  0.41495649  0.34232708  0.28409588     0.76900
O597        O  0.44983692  0.32937770  0.27611189    -0.59300
O598        O  0.42079175  0.30820493  0.23991572    -0.57700
O599        O  0.41785520  0.31482077  0.34105438    -0.57700
O600        O  0.42204545  0.33989830  0.30829158    -0.56900
O601        O  0.40721947  0.30535280  0.67198814    -0.58100
C602        C  0.42344715  0.31735537  0.60217901     0.74600
O603        O  0.41268508  0.33680026  0.70896840    -0.59200
C604        C  0.40827206  0.30269136  0.70183485     0.74500
C605        C  0.45076933  0.32358748  0.68746338     0.76900
Cd606      Cd  0.42378675  0.32220564  0.67126984     1.37500
O607        O  0.43085194  0.31130649  0.62112161    -0.58100
O608        O  0.44477384  0.31312279  0.68603319    -0.56900
C609        C  0.41095085  0.34572837  0.68866851     0.76900
O610        O  0.44420617  0.33357235  0.68263939    -0.59300
O611        O  0.41615488  0.32549960  0.61525029    -0.57700
O612        O  0.41672306  0.30882009  0.71743590    -0.57700
O613        O  0.41555692  0.34397379  0.66066264    -0.56900
O614        O  0.58618593  0.30253398  0.68265893    -0.58100
C615        C  0.57583341  0.31646683  0.60873706     0.74600
O616        O  0.55319811  0.33397843  0.67990609    -0.59200
C617        C  0.58633816  0.30240288  0.71340684     0.74500
C618        C  0.58787116  0.34602112  0.68982274     0.76900
Cd619      Cd  0.57392288  0.32255130  0.67696079     1.37500
O620        O  0.58527236  0.32082928  0.62455642    -0.58100
O621        O  0.58044007  0.34486130  0.66570060    -0.56900
C622        C  0.54691512  0.32472604  0.69144673     0.76900
O623        O  0.58843289  0.33655298  0.70885498    -0.59300
O624        O  0.56573949  0.31446966  0.62474736    -0.57700
O625        O  0.58037521  0.31137560  0.72734632    -0.57700
O626        O  0.55323569  0.31471749  0.69777226    -0.56900
O627        O  0.29794410  0.58973732  0.69226059    -0.58100
C628        C  0.31746658  0.57798272  0.61811532     0.74600
O629        O  0.34104387  0.58216394  0.69903282    -0.59200
C630        C  0.29765508  0.59021125  0.72295708     0.74500
C631        C  0.31643170  0.55020449  0.70509162     0.76900
Cd632      Cd  0.31783160  0.57720553  0.68844731     1.37500
O633        O  0.30733453  0.57892930  0.63461908    -0.58100
O634        O  0.30879850  0.55554650  0.68546002    -0.56900
C635        C  0.33920058  0.59405460  0.70266956     0.76900
O636        O  0.32467419  0.55742103  0.71827682    -0.59300
O637        O  0.32775153  0.57666314  0.63409791    -0.57700
O638        O  0.30638163  0.58413416  0.73785640    -0.57700
O639        O  0.32771709  0.59777353  0.70066391    -0.56900
O640        O  0.30499242  0.41039911  0.69452060    -0.58100
C641        C  0.32072042  0.42567325  0.62310499     0.74600
O642        O  0.32954053  0.44772036  0.71732442    -0.59200
C643        C  0.30194161  0.41152613  0.72408610     0.74500
C644        C  0.34474017  0.41364386  0.71103808     0.76900
Cd645      Cd  0.32152444  0.42712374  0.69369808     1.37500
O646        O  0.33085505  0.42381523  0.63924300    -0.58100
O647        O  0.34512849  0.42437975  0.69689113    -0.56900
C648        C  0.31954154  0.45407700  0.71088474     0.76900
O649        O  0.33377096  0.40975482  0.71930464    -0.59300
O650        O  0.31084055  0.42819540  0.63949955    -0.57700
O651        O  0.30783819  0.42008435  0.73997794    -0.57700
O652        O  0.31046405  0.44788717  0.69808201    -0.56900
O653        O  0.70237444  0.58919956  0.71199376    -0.58100
C654        C  0.68684405  0.57242944  0.64060973     0.74600
O655        O  0.67484333  0.55352815  0.72743024    -0.59200
C656        C  0.70404860  0.58912775  0.74240611     0.74500
C657        C  0.66178886  0.59086490  0.71587326     0.76900
Cd658      Cd  0.68424332  0.57430880  0.71004951     1.37500
O659        O  0.69505881  0.57820305  0.65789756    -0.58100
O660        O  0.66803527  0.58922048  0.69010817    -0.56900
C661        C  0.68512876  0.54712975  0.72612516     0.76900
O662        O  0.66556881  0.58442682  0.74020875    -0.59300
O663        O  0.67776594  0.56708266  0.65562058    -0.57700
O664        O  0.69677968  0.58179629  0.75841443    -0.57700
O665        O  0.69510939  0.55340452  0.71938644    -0.56900
O666        O  0.70310626  0.41380153  0.70665116    -0.58100
C667        C  0.68646403  0.42479285  0.62706233     0.74600
O668        O  0.66216318  0.41645989  0.72332866    -0.59200
C669        C  0.69973735  0.40740321  0.73120946     0.74500
C670        C  0.68423663  0.45064744  0.71711343     0.76900
Cd671      Cd  0.68212039  0.42406473  0.69626443     1.37500
O672        O  0.68957983  0.41509957  0.64378077    -0.58100
O673        O  0.69367117  0.44436077  0.70658137    -0.56900
C674        C  0.65726876  0.41166007  0.69792376     0.76900
O675        O  0.67387864  0.44448692  0.71990516    -0.59300
O676        O  0.68151104  0.43400799  0.64241760    -0.57700
O677        O  0.68838620  0.40913996  0.74068068    -0.57700
O678        O  0.66356680  0.41311291  0.67207031    -0.56900
O679        O  0.57915655  0.69020651  0.64797258    -0.58100
C680        C  0.58838270  0.70086682  0.73899998     0.74600
O681        O  0.55518908  0.67238515  0.72592152    -0.59200
C682        C  0.57480860  0.68080757  0.63205451     0.74500
C683        C  0.59375289  0.65992407  0.71130821     0.76900
Cd684      Cd  0.57567355  0.68084606  0.70229403     1.37500
O685        O  0.58581069  0.70205137  0.70909105    -0.58100
O686        O  0.59626549  0.67002203  0.69575999    -0.56900
C687        C  0.54842249  0.68193370  0.71772173     0.76900
O688        O  0.58265611  0.65932596  0.72361434    -0.59300
O689        O  0.58446472  0.69071606  0.75243171    -0.57700
O690        O  0.57073326  0.67148656  0.64861997    -0.57700
O691        O  0.55434509  0.69098113  0.70410873    -0.56900
O692        O  0.42505102  0.69564181  0.63969586    -0.58100
C693        C  0.41048701  0.70333022  0.72672561     0.74600
O694        O  0.41660051  0.66363333  0.71921415    -0.59200
C695        C  0.42624960  0.68570807  0.62242651     0.74500
C696        C  0.45169343  0.68256749  0.70978881     0.76900
Cd697      Cd  0.42454000  0.68366038  0.69217872     1.37500
O698        O  0.41202118  0.70366953  0.69627374    -0.58100
O699        O  0.44535904  0.67258582  0.70332321    -0.56900
C700        C  0.40693986  0.66246019  0.70068516     0.76900
O701        O  0.44539826  0.69289137  0.70959548    -0.59300
O702        O  0.41576961  0.69408157  0.74148214    -0.57700
O703        O  0.42693851  0.67521922  0.63754591    -0.57700
O704        O  0.40558909  0.67097641  0.67917795    -0.56900
C705        C  0.73486488  0.17005661  0.40053712     0.86200
C706        C  0.74496096  0.18027471  0.39349664    -0.54000
C707        C  0.74831253  0.18133172  0.36173058     0.09200
C708        C  0.74128642  0.17181968  0.33948382     0.20100
C709        C  0.72360025  0.17349817  0.37785742    -0.54700
C710        C  0.72694458  0.17446355  0.34571705     0.09300
C711        C  0.74024228  0.15767284  0.38611409    -0.54300
C712        C  0.74394113  0.15845198  0.35429194     0.09800
H713        H  0.74913299  0.18619962  0.41241855     0.14300
H714        H  0.74407818  0.17302991  0.31382409     0.00100
H715        H  0.71390479  0.17508636  0.38603425     0.14600
H716        H  0.74099893  0.14908177  0.40066178     0.14400
C717        C  0.67645549  0.22230441  0.17717365     0.86200
C718        C  0.67506060  0.21953809  0.14056831    -0.54000
C719        C  0.67111825  0.22985944  0.12248274     0.09200
C720        C  0.66896826  0.24205167  0.14285086     0.20100
C721        C  0.68549823  0.23384791  0.17892160    -0.54700
C722        C  0.68171852  0.24413077  0.16090930     0.09300
C723        C  0.66334930  0.22781346  0.18712548    -0.54300
C724        C  0.65951533  0.23826401  0.16974188     0.09800
H725        H  0.67714238  0.21028258  0.12995327     0.14300
H726        H  0.66588995  0.25051740  0.12857537     0.00100
H727        H  0.69434678  0.23375221  0.19287055     0.14600
H728        H  0.65755021  0.22425190  0.20674321     0.14400
C729        C  0.74674298  0.34302036  0.15285983     0.86200
C730        C  0.75007563  0.34320297  0.11649421    -0.54000
C731        C  0.75355460  0.33158051  0.10410205     0.09200
C732        C  0.75335675  0.32072536  0.12973914     0.20100
C733        C  0.73639486  0.33271066  0.15589471    -0.54700
C734        C  0.73977118  0.32099610  0.14420832     0.09300
C735        C  0.75863398  0.33720773  0.16928447    -0.54300
C736        C  0.76204105  0.32542325  0.15785299     0.09800
H737        H  0.74958687  0.35162169  0.10133723     0.14300
H738        H  0.75625078  0.31129042  0.12002617     0.00100
H739        H  0.72713553  0.33460670  0.16674203     0.14600
H740        H  0.76334356  0.34169151  0.18986928     0.14400
C741        C  0.83875854  0.25285796  0.29546343     0.86200
C742        C  0.83964564  0.25778407  0.33049494    -0.54000
C743        C  0.82820908  0.26144568  0.34337469     0.09200
C744        C  0.81684597  0.26013354  0.31956242     0.20100
C745        C  0.82848360  0.24239456  0.29618116    -0.54700
C746        C  0.81704002  0.24594391  0.30928174     0.09300
C747        C  0.83235445  0.26384665  0.27646636    -0.54300
C748        C  0.82081494  0.26770460  0.28881694     0.09800
H749        H  0.84844364  0.25752030  0.34463862     0.14300
H750        H  0.80774866  0.26337201  0.33050079     0.00100
H751        H  0.83032969  0.23289536  0.28680701     0.14600
H752        H  0.83615825  0.26791010  0.25441216     0.14400
C753        C  0.74187884  0.15580672  0.69704382     0.86200
C754        C  0.73683576  0.15391586  0.66245761    -0.54000
C755        C  0.73347482  0.16492824  0.64664152     0.09200
C756        C  0.73470777  0.17692807  0.66837077     0.20100
C757        C  0.75245539  0.16591830  0.69417500    -0.54700
C758        C  0.74889469  0.17694755  0.67889802     0.09300
C759        C  0.73092646  0.16270195  0.71451052    -0.54300
C760        C  0.72716875  0.17379859  0.69971550     0.09800
H761        H  0.73656358  0.14456339  0.65114379     0.14300
H762        H  0.73158454  0.18584741  0.65622010     0.00100
H763        H  0.76203078  0.16431851  0.70367714     0.14600
H764        H  0.72666080  0.15952438  0.73700322     0.14400
C765        C  0.65270023  0.24994418  0.83108764     0.86200
C766        C  0.65172936  0.24501994  0.86632234    -0.54000
C767        C  0.66308616  0.24061639  0.87909971     0.09200
C768        C  0.67430822  0.24141718  0.85480226     0.20100
C769        C  0.66339507  0.25994446  0.83250808    -0.54700
C770        C  0.67467946  0.25551984  0.84451277     0.09300
C771        C  0.65842209  0.23865187  0.81214268    -0.54300
C772        C  0.66981805  0.23413459  0.82413125     0.09800
H773        H  0.64310785  0.24553563  0.88062025     0.14300
H774        H  0.68349452  0.23799615  0.86494130     0.00100
H775        H  0.66225114  0.26966580  0.82365027     0.14600
H776        H  0.65402618  0.23509471  0.79002941     0.14400
C777        C  0.77284298  0.31915458  0.80649283     0.86200
C778        C  0.77510504  0.32105938  0.84325832    -0.54000
C779        C  0.76434193  0.32458889  0.86005214     0.09200
C780        C  0.75240188  0.32615819  0.83831242     0.20100
C781        C  0.76162305  0.30969057  0.80443333    -0.54700
C782        C  0.75103634  0.31323072  0.82131873     0.09300
C783        C  0.76697733  0.33194179  0.79490539    -0.54300
C784        C  0.75619205  0.33554503  0.81127630     0.09800
H785        H  0.78419940  0.31906698  0.85507203     0.14300
H786        H  0.74369418  0.32903154  0.85172579     0.00100
H787        H  0.76212365  0.30076351  0.79106178     0.14600
H788        H  0.77067270  0.33767824  0.77526489     0.14400
C789        C  0.82481686  0.25937697  0.58794629     0.86200
C790        C  0.83684164  0.25301408  0.60199118    -0.54000
C791        C  0.83589345  0.24930890  0.63370856     0.09200
C792        C  0.82280860  0.25260009  0.64886700     0.20100
C793        C  0.81391684  0.24995341  0.59471569    -0.54700
C794        C  0.81286596  0.24629513  0.62631883     0.09300
C795        C  0.82210412  0.27062112  0.61115880    -0.54300
C796        C  0.82089326  0.26709030  0.64318988     0.09800
H797        H  0.84539688  0.25154791  0.58762317     0.14300
H798        H  0.82176052  0.24957237  0.67451168     0.00100
H799        H  0.80771583  0.24623574  0.57570728     0.14600
H800        H  0.82084188  0.28040693  0.60327571     0.14400
C801        C  0.81544026  0.28237472  0.72621350    -0.11100
C802        C  0.80661648  0.29213257  0.71873795     0.06000
C803        C  0.80292074  0.29377311  0.68609688    -0.09900
C804        C  0.80778182  0.28587855  0.66172445    -0.11500
C805        C  0.81649335  0.27604786  0.66914789    -0.01300
C806        C  0.82030306  0.27442654  0.70171393    -0.10400
C807        C  0.80054606  0.30009734  0.74462386     0.06100
H808        H  0.79587627  0.30090615  0.67940954     0.08000
H809        H  0.80431334  0.28721721  0.63715612     0.11400
H810        H  0.82705268  0.26702527  0.70833583     0.11700
H811        H  0.81857444  0.28086157  0.75100973     0.08000
C812        C  0.79678369  0.29467550  0.77431727    -0.11100
C813        C  0.78891357  0.30148293  0.79569561    -0.10400
C814        C  0.78434114  0.31378881  0.78772868    -0.01300
C815        C  0.78936339  0.31969488  0.75975587    -0.11500
C816        C  0.79731671  0.31292814  0.73856898    -0.09900
H817        H  0.79915091  0.28486004  0.78007270     0.08000
H818        H  0.78548300  0.29669293  0.81728139     0.11700
H819        H  0.78680123  0.32928481  0.75282253     0.11400
H820        H  0.80050041  0.31760745  0.71659474     0.08000
C821        C  0.70755601  0.26774318  0.82424628    -0.11100
C822        C  0.70752395  0.27989272  0.83881273     0.06000
C823        C  0.69674653  0.28368813  0.85672783    -0.09900
C824        C  0.68617570  0.27558907  0.85946258    -0.11500
C825        C  0.68627799  0.26351617  0.84471983    -0.01300
C826        C  0.69704225  0.25964396  0.82724411    -0.10400
C827        C  0.71862758  0.28857569  0.83472309     0.06100
H828        H  0.69647251  0.29291031  0.86857555     0.08000
H829        H  0.67785999  0.27877434  0.87280928     0.11400
H830        H  0.69707812  0.25063809  0.81449414     0.11700
H831        H  0.71554108  0.26463973  0.80958008     0.08000
C832        C  0.73112042  0.28360960  0.83445591    -0.11100
C833        C  0.74158012  0.29161611  0.82964266    -0.10400
C834        C  0.73981476  0.30479633  0.82527646    -0.01300
C835        C  0.72738668  0.30985379  0.82590262    -0.11500
C836        C  0.71686811  0.30180593  0.83042197    -0.09900
H837        H  0.73284692  0.27352654  0.83839696     0.08000
H838        H  0.75109592  0.28751416  0.83006787     0.11700
H839        H  0.72579064  0.31998609  0.82238168     0.11400
H840        H  0.70735810  0.30591181  0.82998882     0.08000
C841        C  0.76273023  0.21000162  0.66271020    -0.11100
C842        C  0.77586583  0.20737293  0.65974562     0.06000
C843        C  0.78002699  0.19466387  0.66257438    -0.09900
C844        C  0.77129668  0.18485239  0.66853294    -0.11500
C845        C  0.75814311  0.18747246  0.67197440    -0.01300
C846        C  0.75398148  0.20017112  0.66852229    -0.10400
C847        C  0.78514962  0.21776930  0.65276119     0.06100
H848        H  0.79002487  0.19224865  0.65951897     0.08000
H849        H  0.77490267  0.17517477  0.66975238     0.11400
H850        H  0.74400473  0.20264853  0.67059057     0.11700
H851        H  0.75920291  0.21970377  0.66084943     0.08000
C852        C  0.78192307  0.22760145  0.63095834    -0.11100
C853        C  0.79080681  0.23705010  0.62315108    -0.10400
C854        C  0.80312901  0.23690661  0.63695697    -0.01300
C855        C  0.80629168  0.22731105  0.65938939    -0.11500
C856        C  0.79740358  0.21780078  0.66714030    -0.09900
H857        H  0.77263920  0.22780677  0.61918901     0.08000
H858        H  0.78807045  0.24442220  0.60600353     0.11700
H859        H  0.81576009  0.22692516  0.67014924     0.11400
H860        H  0.80013447  0.21044730  0.68433348     0.08000
C861        C  0.71228197  0.20338544  0.73636466    -0.11100
C862        C  0.70105771  0.19851368  0.75036405     0.06000
C863        C  0.69802691  0.18556644  0.74567011    -0.09900
C864        C  0.70631129  0.17758178  0.72832840    -0.11500
C865        C  0.71765214  0.18244823  0.71488440    -0.01300
C866        C  0.72045011  0.19544540  0.71873919    -0.10400
C867        C  0.69285632  0.20690063  0.77063845     0.06100
H868        H  0.68948097  0.18153660  0.75632178     0.08000
H869        H  0.70396533  0.16755525  0.72580416     0.11400
H870        H  0.72923996  0.19936757  0.70943302     0.11700
H871        H  0.71481641  0.21334476  0.73937174     0.08000
C872        C  0.69846126  0.21506357  0.79362789    -0.11100
C873        C  0.69097038  0.22347181  0.81174402    -0.10400
C874        C  0.67762641  0.22413630  0.80710932    -0.01300
C875        C  0.67197250  0.21554367  0.78488920    -0.11500
C876        C  0.67949545  0.20701612  0.76694787    -0.09900
H877        H  0.70871792  0.21498146  0.79753616     0.08000
H878        H  0.69586654  0.22961505  0.82869158     0.11700
H879        H  0.66172946  0.21538029  0.78111773     0.11400
H880        H  0.67489632  0.20074922  0.74955482     0.08000
C881        C  0.83507236  0.27238658  0.42969782    -0.11100
C882        C  0.82596068  0.26533448  0.44706786     0.06000
C883        C  0.81690150  0.25806142  0.42986983    -0.09900
C884        C  0.81719692  0.25747262  0.39599456    -0.11500
C885        C  0.82672579  0.26393315  0.37864538    -0.01300
C886        C  0.83554955  0.27156748  0.39572591    -0.10400
C887        C  0.82654656  0.26443557  0.48295711     0.06100
H888        H  0.80979903  0.25253509  0.44279616     0.08000
H889        H  0.81039964  0.25138870  0.38349847     0.11400
H890        H  0.84299814  0.27662148  0.38282650     0.11700
H891        H  0.84219329  0.27799042  0.44248517     0.08000
C892        C  0.82573103  0.27529395  0.50287432    -0.11100
C893        C  0.82537509  0.27401810  0.53686418    -0.10400
C894        C  0.82604965  0.26182829  0.55146181    -0.01300
C895        C  0.82759462  0.25112556  0.53110597    -0.11500
C896        C  0.82766539  0.25238745  0.49745457    -0.09900
H897        H  0.82498482  0.28470769  0.49209964     0.08000
H898        H  0.82445625  0.28257908  0.55122367     0.11700
H899        H  0.82837336  0.24162664  0.54140067     0.11400
H900        H  0.82852891  0.24389211  0.48261880     0.08000
C901        C  0.75510230  0.31743079  0.01887513    -0.11100
C902        C  0.76048316  0.32748945  0.00085539     0.06000
C903        C  0.76429660  0.33858372  0.01745114    -0.09900
C904        C  0.76239605  0.33974716  0.05097081    -0.11500
C905        C  0.75666292  0.32983110  0.06889931    -0.01300
C906        C  0.75330716  0.31856206  0.05245476    -0.10400
C907        C  0.76172422  0.32657304  0.96482165     0.06100
H908        H  0.76843184  0.34653323  0.00436051     0.08000
H909        H  0.76536877  0.34849043  0.06279039     0.11400
H910        H  0.74893475  0.31072812  0.06520227     0.11700
H911        H  0.75222675  0.30867003  0.00695116     0.08000
C912        C  0.75176851  0.32133024  0.94605211    -0.11100
C913        C  0.75270417  0.32070639  0.91222926    -0.10400
C914        C  0.76364019  0.32525405  0.89618041    -0.01300
C915        C  0.77369253  0.33035195  0.91485963    -0.11500
C916        C  0.77270566  0.33109065  0.94879736    -0.09900
H917        H  0.74313414  0.31787238  0.95750371     0.08000
H918        H  0.74487888  0.31648679  0.89867977     0.11700
H919        H  0.78222401  0.33394416  0.90319194     0.11400
H920        H  0.78058962  0.33509475  0.96255236     0.08000
C921        C  0.77800116  0.29651262  0.19662658    -0.11100
C922        C  0.78837834  0.30201006  0.21339199     0.06000
C923        C  0.79055597  0.31519051  0.20991532    -0.09900
C924        C  0.78230380  0.32273595  0.19098401    -0.11500
C925        C  0.77171399  0.31727248  0.17490757    -0.01300
C926        C  0.76979212  0.30403335  0.17762062    -0.10400
C927        C  0.79673297  0.29397652  0.23465829     0.06100
H928        H  0.79844272  0.31972962  0.22253984     0.08000
H929        H  0.78414355  0.33288725  0.18924449     0.11400
H930        H  0.76164936  0.29950384  0.16611228     0.11700
H931        H  0.77616681  0.28635765  0.19839231     0.08000
C932        C  0.79135564  0.28459060  0.25483091    -0.11100
C933        C  0.79914551  0.27644788  0.27329412    -0.10400
C934        C  0.81254102  0.27740303  0.27205299    -0.01300
C935        C  0.81791351  0.28717271  0.25288513    -0.11500
C936        C  0.81010863  0.29535797  0.23445149    -0.09900
H937        H  0.78107451  0.28343634  0.25605549     0.08000
H938        H  0.79460507  0.26909642  0.28749600     0.11700
H939        H  0.82817737  0.28843033  0.25176885     0.11400
H940        H  0.81456544  0.30251440  0.21926131     0.08000
C941        C  0.65866079  0.23683889  0.03745651    -0.11100
C942        C  0.66779539  0.23081371  0.01776528     0.06000
C943        C  0.67786988  0.22408604  0.03278922    -0.09900
C944        C  0.67875932  0.22341329  0.06677929    -0.11500
C945        C  0.66974551  0.22968267  0.08642054    -0.01300
C946        C  0.65969235  0.23637260  0.07133259    -0.10400
C947        C  0.66694756  0.23200094  0.98176465     0.06100
H948        H  0.68504315  0.21934865  0.01821634     0.08000
H949        H  0.68670412  0.21830647  0.07769949     0.11400
H950        H  0.65257714  0.24123533  0.08573928     0.11700
H951        H  0.65086755  0.24219535  0.02659073     0.08000
C952        C  0.65525516  0.23006733  0.96554616    -0.11100
C953        C  0.65413625  0.23230402  0.93211283    -0.10400
C954        C  0.66462665  0.23679837  0.91405055    -0.01300
C955        C  0.67643785  0.23834044  0.93025269    -0.11500
C956        C  0.67760318  0.23585884  0.96359891    -0.09900
H957        H  0.64692185  0.22692192  0.97886231     0.08000
H958        H  0.64496356  0.23065060  0.92059690     0.11700
H959        H  0.68471308  0.24201765  0.91771248     0.11400
H960        H  0.68670952  0.23753865  0.97550381     0.08000
C961        C  0.70404939  0.27114465  0.18422198    -0.11100
C962        C  0.70554926  0.27756405  0.15453533     0.06000
C963        C  0.69868511  0.27323710  0.12722004    -0.09900
C964        C  0.69065466  0.26258099  0.12945923    -0.11500
C965        C  0.68944181  0.25598945  0.15896558    -0.01300
C966        C  0.69611085  0.26046363  0.18639132    -0.10400
C967        C  0.71440656  0.28860068  0.15205500     0.06100
H968        H  0.69954585  0.27809331  0.10411370     0.08000
H969        H  0.68570271  0.25928032  0.10789428     0.11400
H970        H  0.69522784  0.25566624  0.20956925     0.11700
H971        H  0.70925946  0.27420121  0.20563112     0.08000
C972        C  0.71480874  0.29792577  0.17652620    -0.11100
C973        C  0.72312414  0.30832471  0.17411692    -0.10400
C974        C  0.73127066  0.30964159  0.14720940    -0.01300
C975        C  0.73108539  0.30013535  0.12321755    -0.11500
C976        C  0.72268238  0.28978477  0.12545734    -0.09900
H977        H  0.70855659  0.29727492  0.19734429     0.08000
H978        H  0.72321642  0.31529381  0.19351229     0.11700
H979        H  0.73724250  0.30075148  0.10239345     0.11400
H980        H  0.72275204  0.28261943  0.10651518     0.08000
C981        C  0.72382098  0.17567177  0.56109805    -0.11100
C982        C  0.73017417  0.16656358  0.54186067     0.06000
C983        C  0.73677029  0.15659762  0.55742198    -0.09900
C984        C  0.73759009  0.15604454  0.59108904    -0.11500
C985        C  0.73155400  0.16526572  0.61062424    -0.01300
C986        C  0.72452205  0.17503663  0.59519444    -0.10400
C987        C  0.73082808  0.16767252  0.50582976     0.06100
H988        H  0.74159171  0.14928786  0.54346942     0.08000
H989        H  0.74342917  0.14855109  0.60153103     0.11400
H990        H  0.71967747  0.18225556  0.60934839     0.11700
H991        H  0.71868620  0.18350576  0.54982302     0.08000
C992        C  0.72018328  0.17126397  0.48683733    -0.11100
C993        C  0.72108116  0.17188293  0.45278722    -0.10400
C994        C  0.73270034  0.16897222  0.43711870    -0.01300
C995        C  0.74327485  0.16548784  0.45648351    -0.11500
C996        C  0.74238230  0.16489944  0.49010656    -0.09900
H997        H  0.71113573  0.17344023  0.49826970     0.08000
H998        H  0.71270638  0.17476890  0.43922303     0.11700
H999        H  0.75241726  0.16337368  0.44541325     0.11400
H1000       H  0.75088281  0.16241987  0.50387707     0.08000
C1001       C  0.76682800  0.21236971  0.35608450    -0.11100
C1002       C  0.77591561  0.20957782  0.33214122     0.06000
C1003       C  0.77543423  0.19759619  0.31664546    -0.09900
C1004       C  0.76626195  0.18850216  0.32555652    -0.11500
C1005       C  0.75748343  0.19118477  0.35031134    -0.01300
C1006       C  0.75773439  0.20329419  0.36504710    -0.10400
C1007       C  0.78624309  0.21889354  0.32480222     0.06100
H1008       H  0.78223600  0.19521799  0.29784971     0.08000
H1009       H  0.76631290  0.17924781  0.31383489     0.11400
H1010       H  0.75093025  0.20574808  0.38376964     0.11700
H1011       H  0.76699222  0.22144334  0.36867570     0.08000
C1012       C  0.78371047  0.23207536  0.32324547    -0.11100
C1013       C  0.79361675  0.24083954  0.31812881    -0.10400
C1014       C  0.80632333  0.23666247  0.31443931    -0.01300
C1015       C  0.80878717  0.22342587  0.31629898    -0.11500
C1016       C  0.79889262  0.21468983  0.32113866    -0.09900
H1017       H  0.77403423  0.23562022  0.32586343     0.08000
H1018       H  0.79119265  0.25084060  0.31694809     0.11700
H1019       H  0.81841034  0.21969023  0.31492879     0.11400
H1020       H  0.80122371  0.20463481  0.32308353     0.08000
C1021       C  0.70061312  0.19273617  0.30174251    -0.11100
C1022       C  0.70231072  0.18888862  0.26931889     0.06000
C1023       C  0.71170036  0.17964945  0.26255254    -0.09900
C1024       C  0.71940794  0.17465043  0.28747366    -0.11500
C1025       C  0.71794140  0.17880063  0.31971236    -0.01300
C1026       C  0.70831295  0.18776757  0.32657184    -0.10400
C1027       C  0.69481981  0.19517505  0.24280438     0.06100
H1028       H  0.71314733  0.17634658  0.23794399     0.08000
H1029       H  0.72656150  0.16757843  0.28140724     0.11400
H1030       H  0.70704974  0.19138613  0.35095124     0.11700
H1031       H  0.69366168  0.20001446  0.30782659     0.08000
C1032       C  0.68198310  0.19858074  0.24765138    -0.11100
C1033       C  0.67553081  0.20640241  0.22542939    -0.10400
C1034       C  0.68179242  0.21121031  0.19766391    -0.01300
C1035       C  0.69423373  0.20666969  0.19127666    -0.11500
C1036       C  0.70069585  0.19883465  0.21361159    -0.09900
H1037       H  0.67701298  0.19553441  0.26932509     0.08000
H1038       H  0.66585062  0.20891848  0.23140510     0.11700
H1039       H  0.69931268  0.20995893  0.16999835     0.11400
H1040       H  0.71056812  0.19633726  0.20892930     0.08000
C1041       C  0.51389012  0.69307904  0.71226496    -0.11100
C1042       C  0.50711853  0.68257718  0.72482643     0.06000
C1043       C  0.51419066  0.67216656  0.73718813    -0.09900
C1044       C  0.52762099  0.67209290  0.73598149    -0.11500
C1045       C  0.53431123  0.68242960  0.72240672    -0.01300
C1046       C  0.52727507  0.69301197  0.71113147    -0.10400
C1047       C  0.49278916  0.68232693  0.72356905     0.06100
H1048       H  0.50934001  0.66400478  0.74755539     0.08000
H1049       H  0.53275080  0.66381651  0.74499838     0.11400
H1050       H  0.53210487  0.70113138  0.70046040     0.11700
H1051       H  0.50884271  0.70119979  0.70212225     0.08000
C1052       C  0.48561925  0.69357952  0.72806446    -0.11100
C1053       C  0.47228436  0.69356711  0.72435806    -0.10400
C1054       C  0.46571719  0.68229500  0.71622824    -0.01300
C1055       C  0.47279537  0.67095760  0.71262587    -0.11500
C1056       C  0.48615563  0.67097389  0.71621415    -0.09900
H1057       H  0.49032423  0.70245996  0.73428224     0.08000
H1058       H  0.46712543  0.70245821  0.72742058     0.11700
H1059       H  0.46804147  0.66212169  0.70619143     0.11400
H1060       H  0.49132026  0.66215840  0.71211476     0.08000
C1061       C  0.72894589  0.38705252  0.74843707    -0.11100
C1062       C  0.72434559  0.37840704  0.77173479     0.06000
C1063       C  0.71184873  0.38000884  0.78354873    -0.09900
C1064       C  0.70395695  0.38973482  0.77125594    -0.11500
C1065       C  0.70843514  0.39806014  0.74701033    -0.01300
C1066       C  0.72109447  0.39676228  0.73623952    -0.10400
C1067       C  0.73242147  0.36744536  0.78230101     0.06100
H1068       H  0.70802690  0.37345351  0.80138379     0.08000
H1069       H  0.69422774  0.39048074  0.77997944     0.11400
H1070       H  0.72485189  0.40306765  0.71774817     0.11700
H1071       H  0.73860478  0.38618860  0.73929425     0.08000
C1072       C  0.73929451  0.36040174  0.75919317    -0.11100
C1073       C  0.74703865  0.35016564  0.76865610    -0.10400
C1074       C  0.74817163  0.34671412  0.80154292    -0.01300
C1075       C  0.74119694  0.35367041  0.82469750    -0.11500
C1076       C  0.73336716  0.36391418  0.81516439    -0.09900
H1077       H  0.73853035  0.36270352  0.73361690     0.08000
H1078       H  0.75193583  0.34479501  0.75002349     0.11700
H1079       H  0.74191179  0.35131843  0.85023420     0.11400
H1080       H  0.72822234  0.36921120  0.83351817     0.08000
C1081       C  0.63808305  0.61612282  0.68857917    -0.11100
C1082       C  0.63144131  0.61900770  0.71721988     0.06000
C1083       C  0.63441313  0.61202395  0.74554490    -0.09900
C1084       C  0.64411014  0.60267481  0.74534056    -0.11500
C1085       C  0.65093544  0.60007794  0.71673559    -0.01300
C1086       C  0.64766136  0.60682309  0.68834317    -0.10400
C1087       C  0.62180937  0.62956685  0.71723843     0.06100
H1088       H  0.62950559  0.61405107  0.76804415     0.08000
H1089       H  0.64641049  0.59765370  0.76761200     0.11400
H1090       H  0.65264522  0.60504446  0.66580684     0.11700
H1091       H  0.63589054  0.62111121  0.66618570     0.08000
C1092       C  0.62432200  0.64093094  0.70020419    -0.11100
C1093       C  0.61525554  0.65073125  0.69874068    -0.10400
C1094       C  0.60336891  0.64948961  0.71423757    -0.01300
C1095       C  0.60085999  0.63822483  0.73173770    -0.11500
C1096       C  0.61001382  0.62837797  0.73333016    -0.09900
H1097       H  0.63337508  0.64228318  0.68800705     0.08000
H1098       H  0.61755343  0.65928658  0.68517287     0.11700
H1099       H  0.59179478  0.63698076  0.74394013     0.11400
H1100       H  0.60775234  0.61972175  0.74649994     0.08000
C1101       C  0.69723408  0.51299066  0.73560292    -0.11100
C1102       C  0.68581490  0.50585969  0.73343291     0.06000
C1103       C  0.67418162  0.51261658  0.73080062    -0.09900
C1104       C  0.67397273  0.52598749  0.72976970    -0.11500
C1105       C  0.68538698  0.53303531  0.73080367    -0.01300
C1106       C  0.69702546  0.52638862  0.73401932    -0.10400
C1107       C  0.68598369  0.49151434  0.73222774     0.06100
H1108       H  0.66518580  0.50760251  0.72832442     0.08000
H1109       H  0.66485793  0.53080042  0.72694016     0.11400
H1110       H  0.70599710  0.53154594  0.73497401     0.11700
H1111       H  0.70638150  0.50824694  0.73830815     0.08000
C1112       C  0.69619573  0.48489741  0.71761744    -0.11100
C1113       C  0.69583290  0.47159162  0.71396273    -0.10400
C1114       C  0.68518823  0.46452231  0.72439813    -0.01300
C1115       C  0.67515786  0.47100443  0.73985655    -0.11500
C1116       C  0.67560398  0.48429065  0.74400860    -0.09900
H1117       H  0.70428584  0.49000775  0.70775015     0.08000
H1118       H  0.70369948  0.46689230  0.70179486     0.11700
H1119       H  0.66686514  0.46582071  0.74838710     0.11400
H1120       H  0.66770057  0.48889522  0.75619194     0.08000
C1121       C  0.35644956  0.62551154  0.71321924    -0.11100
C1122       C  0.36935106  0.62193502  0.71072350     0.06000
C1123       C  0.37241771  0.60888182  0.70837567    -0.09900
C1124       C  0.36267208  0.59965267  0.70682111    -0.11500
C1125       C  0.34972974  0.60334917  0.70788602    -0.01300
C1126       C  0.34677745  0.61635064  0.71191808    -0.10400
C1127       C  0.37932836  0.63198495  0.70815767     0.06100
H1128       H  0.38230108  0.60588534  0.70633140     0.08000
H1129       H  0.36524134  0.58970428  0.70376556     0.11400
H1130       H  0.33692671  0.61952788  0.71311326     0.11700
H1131       H  0.35382830  0.63548411  0.71549410     0.08000
C1132       C  0.37750361  0.64216613  0.68640991    -0.11100
C1133       C  0.38652896  0.65192623  0.68402253    -0.10400
C1134       C  0.39759880  0.65184799  0.70353249    -0.01300
C1135       C  0.39952312  0.64161701  0.72521064    -0.11500
C1136       C  0.39049732  0.63170642  0.72732904    -0.09900
H1137       H  0.36906806  0.64253920  0.67104526     0.08000
H1138       H  0.38476718  0.65961259  0.66695487     0.11700
H1139       H  0.40798392  0.64127793  0.74046622     0.11400
H1140       H  0.39210646  0.62396792  0.74433351     0.08000
C1141       C  0.30793985  0.51523097  0.69573565    -0.11100
C1142       C  0.31614506  0.50928310  0.71835571     0.06000
C1143       C  0.32397683  0.51706315  0.73800717    -0.09900
C1144       C  0.32387565  0.53039302  0.73439592    -0.11500
C1145       C  0.31589544  0.53623992  0.71118004    -0.01300
C1146       C  0.30777479  0.52851289  0.69232074    -0.10400
C1147       C  0.31686691  0.49503785  0.72013298     0.06100
H1148       H  0.33026058  0.51284845  0.75603985     0.08000
H1149       H  0.33018178  0.53610529  0.74942436     0.11400
H1150       H  0.30154012  0.53270595  0.67412188     0.11700
H1151       H  0.30192821  0.50960723  0.67976119     0.08000
C1152       C  0.30586767  0.48755424  0.71495681    -0.11100
C1153       C  0.30671578  0.47424534  0.71307109    -0.10400
C1154       C  0.31855370  0.46802873  0.71668298    -0.01300
C1155       C  0.32947771  0.47540157  0.72341399    -0.11500
C1156       C  0.32865487  0.48876168  0.72499921    -0.09900
H1157       H  0.29658241  0.49199398  0.71185879     0.08000
H1158       H  0.29810419  0.46882425  0.70813124     0.11700
H1159       H  0.33874645  0.47088391  0.72617108     0.11400
H1160       H  0.33735494  0.49418150  0.72868919     0.08000
C1161       C  0.60349789  0.28548391  0.78244648    -0.11100
C1162       C  0.61015400  0.27584589  0.76579359     0.06000
C1163       C  0.60781288  0.27422640  0.73239760    -0.09900
C1164       C  0.59962836  0.28252197  0.71564926    -0.11500
C1165       C  0.59355035  0.29260433  0.73193102    -0.01300
C1166       C  0.59526908  0.29377858  0.76567318    -0.10400
C1167       C  0.62037168  0.26831787  0.78232879     0.06100
H1168       H  0.61260773  0.26673838  0.71900725     0.08000
H1169       H  0.59838762  0.28128560  0.68972464     0.11400
H1170       H  0.59068904  0.30144788  0.77888944     0.11700
H1171       H  0.60515001  0.28703225  0.80811219     0.08000
C1172       C  0.63205893  0.26625321  0.76657694    -0.11100
C1173       C  0.64208390  0.25999005  0.78236967    -0.10400
C1174       C  0.64082844  0.25557406  0.81451144    -0.01300
C1175       C  0.62896818  0.25736960  0.83008687    -0.11500
C1176       C  0.61889096  0.26372518  0.81418066    -0.09900
H1177       H  0.63363397  0.26987332  0.74229097     0.08000
H1178       H  0.65106963  0.25889271  0.76967076     0.11700
H1179       H  0.62737917  0.25421508  0.85464735     0.11400
H1180       H  0.60995034  0.26511769  0.82687353     0.08000
C1181       C  0.62825692  0.39335822  0.72790058    -0.11100
C1182       C  0.62356889  0.38797885  0.69890106     0.06000
C1183       C  0.62948616  0.39128009  0.66950629    -0.09900
C1184       C  0.64014195  0.39932849  0.66920390    -0.11500
C1185       C  0.64513039  0.40433147  0.69826947    -0.01300
C1186       C  0.63891246  0.40148568  0.72757848    -0.10400
C1187       C  0.61326003  0.37817690  0.69922451     0.06100
H1188       H  0.62623299  0.38718132  0.64679789     0.08000
H1189       H  0.64471466  0.40132179  0.64621875     0.11400
H1190       H  0.64251691  0.40521903  0.75035722     0.11700
H1191       H  0.62381996  0.39109138  0.75089113     0.08000
C1192       C  0.61344865  0.36829864  0.72238281    -0.11100
C1193       C  0.60484730  0.35809482  0.72011402    -0.10400
C1194       C  0.59584623  0.35756463  0.69469053    -0.01300
C1195       C  0.59523133  0.36774861  0.67248424    -0.11500
C1196       C  0.60384619  0.37793704  0.67471521    -0.09900
H1197       H  0.62065872  0.36812691  0.74134742     0.08000
H1198       H  0.60556578  0.35038399  0.73757596     0.11700
H1199       H  0.58835455  0.36764950  0.65273157     0.11400
H1200       H  0.60334713  0.38549109  0.65677372     0.08000
C1201       C  0.38908048  0.36860059  0.73311366    -0.11100
C1202       C  0.38698698  0.37815871  0.70961814     0.06000
C1203       C  0.39378743  0.37747444  0.68025835    -0.09900
C1204       C  0.40196795  0.36719078  0.67395943    -0.11500
C1205       C  0.40353750  0.35734657  0.69683685    -0.01300
C1206       C  0.39723548  0.35830783  0.72676996    -0.10400
C1207       C  0.37692426  0.38809262  0.71437035     0.06100
H1208       H  0.39232709  0.38454808  0.66141598     0.08000
H1209       H  0.40672317  0.36672927  0.65069203     0.11400
H1210       H  0.39830229  0.35090202  0.74496083     0.11700
H1211       H  0.38420805  0.36892714  0.75622493     0.08000
C1212       C  0.36533279  0.38487830  0.72953722    -0.11100
C1213       C  0.35516445  0.39353399  0.73026588    -0.10400
C1214       C  0.35627549  0.40560682  0.71569142    -0.01300
C1215       C  0.36807132  0.40915291  0.70216624    -0.11500
C1216       C  0.37829780  0.40048814  0.70154093    -0.09900
H1217       H  0.36381809  0.37540277  0.73931203     0.08000
H1218       H  0.34619782  0.39050758  0.74084204     0.11700
H1219       H  0.36922478  0.41841066  0.69080064     0.11400
H1220       H  0.38716089  0.40337910  0.69021760     0.08000
C1221       C  0.48426734  0.33601945  0.70377824    -0.11100
C1222       C  0.49167772  0.32493362  0.69932811     0.06000
C1223       C  0.48540981  0.31334795  0.69263609    -0.09900
C1224       C  0.47209881  0.31289091  0.68980975    -0.11500
C1225       C  0.46473329  0.32402190  0.69331957    -0.01300
C1226       C  0.47092388  0.33557673  0.70067819    -0.10400
C1227       C  0.50589979  0.32546968  0.70000457     0.06100
H1228       H  0.49082319  0.30468101  0.68851582     0.08000
H1229       H  0.46759932  0.30387169  0.68384761     0.11400
H1230       H  0.46546408  0.34429122  0.70367563     0.11700
H1231       H  0.48879825  0.34505471  0.70938544     0.08000
C1232       C  0.51242919  0.33567389  0.68530157    -0.11100
C1233       C  0.52579136  0.33563909  0.68346072    -0.10400
C1234       C  0.53290747  0.32538395  0.69619272    -0.01300
C1235       C  0.52642216  0.31536001  0.71168566    -0.11500
C1236       C  0.51307293  0.31542104  0.71366115    -0.09900
H1237       H  0.50719272  0.34346872  0.67414594     0.08000
H1238       H  0.53052547  0.34345255  0.67116603     0.11700
H1239       H  0.53165687  0.30735029  0.72182378     0.11400
H1240       H  0.50834694  0.30751393  0.72557456     0.08000
C1241       C  0.43667213  0.30873038  0.44720281    -0.11100
C1242       C  0.42487932  0.31091884  0.46259094     0.06000
C1243       C  0.41391014  0.31276228  0.44325077    -0.09900
C1244       C  0.41478036  0.31294822  0.40944802    -0.11500
C1245       C  0.42663698  0.31128958  0.39412605    -0.01300
C1246       C  0.43754465  0.30893591  0.41329575    -0.10400
C1247       C  0.42410799  0.31202941  0.49854306     0.06100
H1248       H  0.40464236  0.31422940  0.45427121     0.08000
H1249       H  0.40619508  0.31474619  0.39533009     0.11400
H1250       H  0.44681157  0.30762050  0.40213294     0.11700
H1251       H  0.44532540  0.30738241  0.46135667     0.08000
C1252       C  0.43146274  0.30410987  0.51899656    -0.11100
C1253       C  0.43113020  0.30569100  0.55273526    -0.10400
C1254       C  0.42341650  0.31520287  0.56668901    -0.01300
C1255       C  0.41589116  0.32294071  0.54631692    -0.11500
C1256       C  0.41626172  0.32140412  0.51267478    -0.09900
H1257       H  0.43747718  0.29669412  0.50892403     0.08000
H1258       H  0.43698555  0.29953841  0.56787377     0.11700
H1259       H  0.40988559  0.33037878  0.55633884     0.11400
H1260       H  0.41064406  0.32782002  0.49768100     0.08000
C1261       C  0.60939608  0.26617699  0.23862405    -0.11100
C1262       C  0.61655123  0.26952243  0.21104511     0.06000
C1263       C  0.61420110  0.28141130  0.19622179    -0.09900
C1264       C  0.60554415  0.29007344  0.20992190    -0.11500
C1265       C  0.59905996  0.28702994  0.23871980    -0.01300
C1266       C  0.60078366  0.27483460  0.25233870    -0.10400
C1267       C  0.62719685  0.26116475  0.19975596     0.06100
H1268       H  0.61957054  0.28432364  0.17507144     0.08000
H1269       H  0.60439882  0.29938975  0.19882872     0.11400
H1270       H  0.59584321  0.27214856  0.27435768     0.11700
H1271       H  0.61074582  0.25698297  0.25022587     0.36800
C1272       C  0.63513160  0.25507400  0.22265038    -0.11100
C1273       C  0.64550713  0.24768331  0.21274575    -0.10400
C1274       C  0.64827806  0.24611338  0.17961274    -0.01300
C1275       C  0.64046398  0.25228174  0.15659521    -0.11500
C1276       C  0.62999157  0.25969933  0.16654979    -0.09900
H1277       H  0.63354375  0.25629996  0.24841386     0.08000
H1278       H  0.65156120  0.24343615  0.23123781     0.11700
H1279       H  0.64234926  0.25127765  0.13094714     0.11400
H1280       H  0.62405456  0.26424330  0.14827449     0.08000
C1281       C  0.58706786  0.30576807  0.45196497    -0.11100
C1282       C  0.57697835  0.31154277  0.46900407     0.06000
C1283       C  0.56713436  0.31756681  0.45135942    -0.09900
C1284       C  0.56754997  0.31813842  0.41750271    -0.11500
C1285       C  0.57776202  0.31261085  0.40049368    -0.01300
C1286       C  0.58741574  0.30622790  0.41800748    -0.10400
C1287       C  0.57692237  0.31180054  0.50504871     0.06100
H1288       H  0.55929819  0.32220147  0.46380012     0.08000
H1289       H  0.55993999  0.32305817  0.40464081     0.11400
H1290       H  0.59537710  0.30183701  0.40550761     0.11700
H1291       H  0.59470908  0.30093985  0.46492888     0.08000
C1292       C  0.56551438  0.30979163  0.52221530    -0.11100
C1293       C  0.56526530  0.31093623  0.55600392    -0.10400
C1294       C  0.57640055  0.31419795  0.57334388    -0.01300
C1295       C  0.58787626  0.31593540  0.55629492    -0.11500
C1296       C  0.58814391  0.31470245  0.52249144    -0.09900
H1297       H  0.55675061  0.30742014  0.50945285     0.08000
H1298       H  0.55627702  0.30954514  0.56847941     0.11700
H1299       H  0.59659832  0.31848869  0.56901420     0.11400
H1300       H  0.59704145  0.31644478  0.50988959     0.08000
C1301       C  0.51932820  0.32783937  0.25092113    -0.11100
C1302       C  0.51165254  0.31810082  0.26418297     0.06000
C1303       C  0.51774875  0.30787190  0.28017960    -0.09900
C1304       C  0.53106800  0.30741820  0.28309924    -0.11500
C1305       C  0.53872038  0.31723347  0.27040000    -0.01300
C1306       C  0.53271634  0.32742334  0.25406274    -0.10400
C1307       C  0.49735855  0.31867938  0.26255611     0.06100
H1308       H  0.51220552  0.30033902  0.29133983     0.08000
H1309       H  0.53535877  0.29950012  0.29614785     0.11400
H1310       H  0.53835351  0.33513598  0.24402931     0.11700
H1311       H  0.51499021  0.33579501  0.23815169     0.08000
C1312       C  0.49077713  0.33032296  0.26642430    -0.11100
C1313       C  0.47737003  0.33059864  0.26818407    -0.10400
C1314       C  0.47023468  0.31924055  0.26620597    -0.01300
C1315       C  0.47676734  0.30769340  0.26095875    -0.11500
C1316       C  0.49012800  0.30742154  0.25904569    -0.09900
H1317       H  0.49599614  0.33917087  0.26947266     0.08000
H1318       H  0.47262363  0.33964989  0.27229006     0.11700
H1319       H  0.47156333  0.29878156  0.25909022     0.11400
H1320       H  0.49481348  0.29831809  0.25528550     0.08000
C1321       C  0.32594952  0.58657903  0.46019168    -0.11100
C1322       C  0.31690706  0.57938743  0.47748866     0.06000
C1323       C  0.30797379  0.57201772  0.46007087    -0.09900
C1324       C  0.30829240  0.57158291  0.42613637    -0.11500
C1325       C  0.31752509  0.57854217  0.40891796    -0.01300
C1326       C  0.32624016  0.58617978  0.42628111    -0.10400
C1327       C  0.31703248  0.57926463  0.51356364     0.06100
H1328       H  0.30096617  0.56628908  0.47273583     0.08000
H1329       H  0.30146946  0.56560255  0.41341759     0.11400
H1330       H  0.33343242  0.59170151  0.41367848     0.11700
H1331       H  0.33283132  0.59249049  0.47292030     0.08000
C1332       C  0.32866225  0.57838189  0.53072992    -0.11100
C1333       C  0.32879667  0.57792858  0.56466009    -0.10400
C1334       C  0.31730902  0.57842209  0.58218540    -0.01300
C1335       C  0.30568220  0.57937039  0.56505867    -0.11500
C1336       C  0.30554435  0.57975851  0.53110767    -0.09900
H1337       H  0.33765814  0.57780976  0.51788134     0.08000
H1338       H  0.33790438  0.57717226  0.57717339     0.11700
H1339       H  0.29667719  0.57979446  0.57790068     0.11400
H1340       H  0.29644869  0.58055705  0.51855939     0.08000
C1341       C  0.31058753  0.41761685  0.46493884    -0.11100
C1342       C  0.32026934  0.42400573  0.48231032     0.06000
C1343       C  0.32991121  0.43032132  0.46487653    -0.09900
C1344       C  0.32986570  0.43027210  0.43090391    -0.11500
C1345       C  0.32022135  0.42383929  0.41351910    -0.01300
C1346       C  0.31058722  0.41749713  0.43092010    -0.10400
C1347       C  0.32030915  0.42415330  0.51845331     0.06100
H1348       H  0.33741347  0.43545392  0.47753857     0.08000
H1349       H  0.33741981  0.43525986  0.41823647     0.11400
H1350       H  0.30305425  0.41241877  0.41824048     0.11700
H1351       H  0.30310220  0.41255986  0.47768912     0.08000
C1352       C  0.30893410  0.42623715  0.53576524    -0.11100
C1353       C  0.30904179  0.42669452  0.56974482    -0.10400
C1354       C  0.32051350  0.42499230  0.58716183    -0.01300
C1355       C  0.33185870  0.42274540  0.56988283    -0.11500
C1356       C  0.33176437  0.42237218  0.53592845    -0.09900
H1357       H  0.29998254  0.42775983  0.52298436     0.08000
H1358       H  0.30015021  0.42844680  0.58237524     0.11700
H1359       H  0.34084548  0.42134727  0.58260675     0.11400
H1360       H  0.34065351  0.42059168  0.52331076     0.08000
C1361       C  0.36991941  0.38301570  0.31836108    -0.11100
C1362       C  0.37689828  0.38247080  0.28933946     0.06000
C1363       C  0.37318483  0.39041997  0.26337639    -0.09900
C1364       C  0.36268284  0.39870488  0.26642762    -0.11500
C1365       C  0.35557625  0.39904018  0.29532243    -0.01300
C1366       C  0.35935926  0.39113124  0.32124686    -0.10400
C1367       C  0.38763824  0.37320729  0.28610350     0.06100
H1368       H  0.37842055  0.39022937  0.24076399     0.08000
H1369       H  0.36000031  0.40468654  0.24603520     0.11400
H1370       H  0.35410089  0.39115955  0.34383267     0.11700
H1371       H  0.37243585  0.37689634  0.33862854     0.08000
C1372       C  0.39659614  0.37165431  0.31138586    -0.11100
C1373       C  0.40585642  0.36199849  0.31001268    -0.10400
C1374       C  0.40633921  0.35361883  0.28338736    -0.01300
C1375       C  0.39768703  0.35547093  0.25754033    -0.11500
C1376       C  0.38846993  0.36519558  0.25882748    -0.09900
H1377       H  0.39626557  0.37776728  0.33256339     0.08000
H1378       H  0.41237511  0.36083521  0.33032341     0.11700
H1379       H  0.39775443  0.34912869  0.23679056     0.11400
H1380       H  0.38162649  0.36608812  0.23912649     0.08000
C1381       C  0.33046417  0.48414824  0.26726818    -0.11100
C1382       C  0.32099459  0.49160776  0.28245542     0.06000
C1383       C  0.31126512  0.48527396  0.29962141    -0.09900
C1384       C  0.31104432  0.47192717  0.30178540    -0.11500
C1385       C  0.32060531  0.46449595  0.28711273    -0.01300
C1386       C  0.33029290  0.47075373  0.26965936    -0.10400
C1387       C  0.32135442  0.50591179  0.28136299     0.06100
H1388       H  0.30395455  0.49065388  0.31217039     0.08000
H1389       H  0.30353470  0.46743031  0.31573991     0.11400
H1390       H  0.33778685  0.46529652  0.25802891     0.11700
H1391       H  0.33801750  0.48866559  0.25352718     0.08000
C1392       C  0.33300435  0.51259029  0.28403829    -0.11100
C1393       C  0.33319401  0.52599198  0.28551381    -0.10400
C1394       C  0.32174677  0.53306544  0.28428026    -0.01300
C1395       C  0.31014668  0.52642211  0.28061413    -0.11500
C1396       C  0.30995359  0.51304743  0.27914211    -0.09900
H1397       H  0.34196309  0.50744834  0.28614062     0.08000
H1398       H  0.34229345  0.53080241  0.28845597     0.11700
H1399       H  0.30115633  0.53155855  0.27947549     0.11400
H1400       H  0.30082219  0.50827806  0.27648567     0.08000
C1401       C  0.57281914  0.69228360  0.47364260    -0.11100
C1402       C  0.57363772  0.68070476  0.49099787     0.06000
C1403       C  0.57428922  0.66921904  0.47330478    -0.09900
C1404       C  0.57421788  0.66933015  0.43933051    -0.11500
C1405       C  0.57366750  0.68092572  0.42217803    -0.01300
C1406       C  0.57294359  0.69239368  0.43968649    -0.10400
C1407       C  0.57396947  0.68064933  0.52728139     0.06100
H1408       H  0.57514901  0.66012251  0.48562945     0.08000
H1409       H  0.57487412  0.66033357  0.42648088     0.11400
H1410       H  0.57243467  0.70147358  0.42712055     0.11700
H1411       H  0.57199616  0.70130975  0.48624370     0.08000
C1412       C  0.57988582  0.69066653  0.54450557    -0.11100
C1413       C  0.58009705  0.69073159  0.57844751    -0.10400
C1414       C  0.57453841  0.68071357  0.59610012    -0.01300
C1415       C  0.56876915  0.67060550  0.57907416    -0.11500
C1416       C  0.56842452  0.67060266  0.54509591    -0.09900
H1417       H  0.58453577  0.69841909  0.53181124     0.08000
H1418       H  0.58471200  0.69860259  0.59087867     0.11700
H1419       H  0.56439382  0.66274673  0.59202485     0.11400
H1420       H  0.56361265  0.66281140  0.53286549     0.08000
C1421       C  0.41877768  0.69404612  0.46338828    -0.11100
C1422       C  0.42671584  0.68587089  0.48170988     0.06000
C1423       C  0.43453942  0.67710573  0.46520505    -0.09900
C1424       C  0.43427021  0.67633397  0.43140897    -0.11500
C1425       C  0.42628519  0.68440334  0.41311477    -0.01300
C1426       C  0.41857812  0.69332889  0.42940303    -0.10400
C1427       C  0.42664675  0.68610361  0.51786078     0.06100
H1428       H  0.44096729  0.67084346  0.47841595     0.08000
H1429       H  0.44037836  0.66941162  0.41958434     0.11400
H1430       H  0.41230234  0.69965746  0.41590935     0.11700
H1431       H  0.41252083  0.70080206  0.47531100     0.08000
C1432       C  0.42553964  0.69763500  0.53522024    -0.11100
C1433       C  0.42553067  0.69762358  0.56927908    -0.10400
C1434       C  0.42663656  0.68608383  0.58654436    -0.01300
C1435       C  0.42776695  0.67461464  0.56917223    -0.11500
C1436       C  0.42771741  0.67461581  0.53535319    -0.09900
H1437       H  0.42482531  0.70666605  0.52251068     0.08000
H1438       H  0.42462538  0.70661103  0.58206494     0.11700
H1439       H  0.42854711  0.66555146  0.58173247     0.11400
H1440       H  0.42830671  0.66553370  0.52290397     0.08000
C1441       C  0.39208832  0.62765424  0.31619263    -0.11100
C1442       C  0.38680379  0.62448573  0.28575550     0.06000
C1443       C  0.39051162  0.63170141  0.25850235    -0.09900
C1444       C  0.39892741  0.64205670  0.26182435    -0.11500
C1445       C  0.40383096  0.64543819  0.29246693    -0.01300
C1446       C  0.40048788  0.63797165  0.31948346    -0.10400
C1447       C  0.37687536  0.61425847  0.28310126     0.06100
H1448       H  0.38679581  0.62943636  0.23461793     0.08000
H1449       H  0.40136075  0.64759383  0.24051767     0.11400
H1450       H  0.40408886  0.64031944  0.34344195     0.11700
H1451       H  0.38934356  0.62248305  0.33782789     0.08000
C1452       C  0.37749060  0.60328456  0.30284062    -0.11100
C1453       C  0.36739539  0.59450096  0.30332332    -0.10400
C1454       C  0.35644853  0.59642198  0.28396449    -0.01300
C1455       C  0.35609551  0.60701311  0.26298101    -0.11500
C1456       C  0.36617672  0.61582581  0.26256232    -0.09900
H1457       H  0.38567422  0.60160925  0.31849354     0.08000
H1458       H  0.36798602  0.58642008  0.31969911     0.11700
H1459       H  0.34777700  0.60879594  0.24785690     0.11400
H1460       H  0.36527356  0.62419933  0.24728334     0.08000
C1461       C  0.48700620  0.67247333  0.26896781    -0.11100
C1462       C  0.49435920  0.68277926  0.28062825     0.06000
C1463       C  0.48786952  0.69342917  0.29346505    -0.09900
C1464       C  0.47448708  0.69354140  0.29576449    -0.11500
C1465       C  0.46721852  0.68300357  0.28536404    -0.01300
C1466       C  0.47362726  0.67257120  0.27139032    -0.10400
C1467       C  0.50868864  0.68211606  0.28133297     0.06100
H1468       H  0.49314351  0.70149248  0.30304568     0.08000
H1469       H  0.46985990  0.70172696  0.30669115     0.11400
H1470       H  0.46831450  0.66433272  0.26294662     0.11700
H1471       H  0.49160117  0.66421973  0.25831851     0.08000
C1472       C  0.51500654  0.67052412  0.28830130    -0.11100
C1473       C  0.52835401  0.67006206  0.29176662    -0.10400
C1474       C  0.53574559  0.68119474  0.28868382    -0.01300
C1475       C  0.52952245  0.69270750  0.28076497    -0.11500
C1476       C  0.51618601  0.69315140  0.27694421    -0.09900
H1477       H  0.50960849  0.66185647  0.29236932     0.08000
H1478       H  0.53284190  0.66106405  0.29810659     0.11700
H1479       H  0.53495757  0.70144065  0.27800961     0.11400
H1480       H  0.51173593  0.70219870  0.27094952     0.08000
C1481       C  0.69863729  0.57649848  0.48251757    -0.11100
C1482       C  0.68731194  0.57440034  0.50004891     0.06000
C1483       C  0.67570981  0.57329228  0.48277177    -0.09900
C1484       C  0.67547242  0.57410720  0.44888126    -0.11500
C1485       C  0.68681099  0.57614535  0.43148444    -0.01300
C1486       C  0.69837739  0.57741600  0.44866455    -0.10400
C1487       C  0.68758554  0.57345806  0.53615239     0.06100
H1488       H  0.66676347  0.57193511  0.49543442     0.08000
H1489       H  0.66640026  0.57315364  0.43629830     0.11400
H1490       H  0.70727974  0.57894308  0.43590273     0.11700
H1491       H  0.70776987  0.57721467  0.49488529     0.08000
C1492       C  0.67931186  0.56507745  0.55256896    -0.11100
C1493       C  0.67924342  0.56455784  0.58648911    -0.10400
C1494       C  0.68754858  0.57229062  0.60477626    -0.01300
C1495       C  0.69604184  0.58042620  0.58848034    -0.11500
C1496       C  0.69601572  0.58105687  0.55457982    -0.09900
H1497       H  0.67288079  0.55888774  0.53922188     0.08000
H1498       H  0.67262264  0.55815578  0.59841287     0.11700
H1499       H  0.70247681  0.58657649  0.60195976     0.11400
H1500       H  0.70238368  0.58776096  0.54287820     0.08000
C1501       C  0.63195021  0.60833895  0.29949911    -0.11100
C1502       C  0.63459701  0.62150634  0.30092807     0.06000
C1503       C  0.64739990  0.62545796  0.30368716    -0.09900
C1504       C  0.65727044  0.61653239  0.30636673    -0.11500
C1505       C  0.65464638  0.60337756  0.30625030    -0.01300
C1506       C  0.64189681  0.59934130  0.30219375    -0.10400
C1507       C  0.62416288  0.63119875  0.30198687     0.06100
H1508       H  0.64977755  0.63552306  0.30430152     0.08000
H1509       H  0.66698402  0.61997393  0.30911858     0.11400
H1510       H  0.63958344  0.58926093  0.30199824     0.11700
H1511       H  0.62216963  0.60501223  0.29756197     0.08000
C1512       C  0.61353424  0.63071257  0.28086918    -0.11100
C1513       C  0.60396571  0.64016876  0.28221661    -0.10400
C1514       C  0.60483416  0.65017760  0.30491207    -0.01300
C1515       C  0.61541592  0.65051354  0.32607331    -0.11500
C1516       C  0.62491438  0.64118520  0.32463309    -0.09900
H1517       H  0.61273214  0.62314529  0.26307514     0.08000
H1518       H  0.59592494  0.63965558  0.26559246     0.11700
H1519       H  0.61638542  0.65802524  0.34397359     0.11400
H1520       H  0.63284024  0.64172181  0.34161734     0.08000
C1521       C  0.72937215  0.39206603  0.24752493    -0.11100
C1522       C  0.72536554  0.38794314  0.21665534     0.06000
C1523       C  0.71436381  0.39343182  0.20269709    -0.09900
C1524       C  0.70711890  0.40232748  0.22002331    -0.11500
C1525       C  0.71075544  0.40592580  0.25160730    -0.01300
C1526       C  0.72215552  0.40099321  0.26480650    -0.10400
C1527       C  0.73192909  0.37715114  0.20036547     0.06100
H1528       H  0.71099636  0.39035843  0.17905994     0.08000
H1529       H  0.69837521  0.40596581  0.20922273     0.11400
H1530       H  0.72524114  0.40365160  0.28900774     0.11700
H1531       H  0.73790835  0.38810449  0.25865805     0.08000
C1532       C  0.73433555  0.37739356  0.16687849    -0.11100
C1533       C  0.73954263  0.36672252  0.15125078    -0.10400
C1534       C  0.74235578  0.35546326  0.16878724    -0.01300
C1535       C  0.74007076  0.35541871  0.20247194    -0.11500
C1536       C  0.73502794  0.36611121  0.21805399    -0.09900
H1537       H  0.73203069  0.38580877  0.15268403     0.08000
H1538       H  0.74085967  0.36737171  0.12538455     0.11700
H1539       H  0.74190471  0.34690052  0.21671059     0.11400
H1540       H  0.73306731  0.36555094  0.24380857     0.08000
C1541       C  0.69223425  0.41486635  0.53971345    -0.11100
C1542       C  0.68960419  0.42630100  0.52296622     0.06000
C1543       C  0.68675876  0.43733090  0.54096628    -0.09900
C1544       C  0.68604476  0.43685237  0.57477002    -0.11500
C1545       C  0.68822531  0.42534834  0.59146259    -0.01300
C1546       C  0.69156144  0.41439770  0.57367069    -0.10400
C1547       C  0.68919416  0.42667977  0.48688142     0.06100
H1548       H  0.68494838  0.44634121  0.52884311     0.08000
H1549       H  0.68360075  0.44548385  0.58782900     0.11400
H1550       H  0.69329654  0.40539692  0.58591488     0.11700
H1551       H  0.69437570  0.40618864  0.52652005     0.08000
C1552       C  0.69835347  0.42019667  0.46817722    -0.11100
C1553       C  0.69775866  0.42056783  0.43419235    -0.10400
C1554       C  0.68792776  0.42733050  0.41828621    -0.01300
C1555       C  0.67878455  0.43378457  0.43699874    -0.11500
C1556       C  0.67942402  0.43348477  0.47085170    -0.09900
H1557       H  0.70603701  0.41493997  0.47982244     0.08000
H1558       H  0.70491050  0.41545998  0.42037600     0.11700
H1559       H  0.67106424  0.43902966  0.42546510     0.11400
H1560       H  0.67209720  0.43840089  0.48452367     0.08000
C1561       C  0.63352935  0.39093100  0.27461103    -0.11100
C1562       C  0.63313769  0.38058409  0.29647899     0.06000
C1563       C  0.64208823  0.38025844  0.32208752    -0.09900
C1564       C  0.65145979  0.38967344  0.32508316    -0.11500
C1565       C  0.65209938  0.39981123  0.30280659    -0.01300
C1566       C  0.64292056  0.40046383  0.27776866    -0.10400
C1567       C  0.62378848  0.36989669  0.29253546     0.06100
H1568       H  0.64188921  0.37265962  0.33992537     0.08000
H1569       H  0.65828358  0.38895363  0.34487978     0.11400
H1570       H  0.64317690  0.40817111  0.26023466     0.11700
H1571       H  0.62682080  0.39146788  0.25454693     0.08000
C1572       C  0.61101423  0.37207136  0.28288440    -0.11100
C1573       C  0.60221982  0.36192025  0.28135872    -0.10400
C1574       C  0.60603648  0.34942390  0.28952111    -0.01300
C1575       C  0.61887753  0.34724433  0.29807801    -0.11500
C1576       C  0.62761922  0.35729587  0.29940334    -0.09900
H1577       H  0.60772474  0.38165194  0.27746836     0.08000
H1578       H  0.59238897  0.36389233  0.27459343     0.11700
H1579       H  0.62219303  0.33772177  0.30408416     0.11400
H1580       H  0.63743493  0.35516784  0.30598590     0.08000
C1581       C  0.67428580  0.48842796  0.28970387    -0.11100
C1582       C  0.68610890  0.49487813  0.28998437     0.06000
C1583       C  0.69740416  0.48753706  0.28908553    -0.09900
C1584       C  0.69690155  0.47417627  0.28978456    -0.11500
C1585       C  0.68509227  0.46779420  0.29114112    -0.01300
C1586       C  0.67379042  0.47505634  0.29016901    -0.10400
C1587       C  0.68666826  0.50911185  0.29311348     0.06100
H1588       H  0.70668239  0.49211046  0.28838864     0.08000
H1589       H  0.70579165  0.46885170  0.29019129     0.11400
H1590       H  0.66454265  0.47041920  0.29112558     0.11700
H1591       H  0.66537579  0.49368414  0.29064380     0.08000
C1592       C  0.67723084  0.51699041  0.27894324    -0.11100
C1593       C  0.67745848  0.53026540  0.28348049    -0.10400
C1594       C  0.68716758  0.53600925  0.30212100    -0.01300
C1595       C  0.69668700  0.52818944  0.31591301    -0.11500
C1596       C  0.69642362  0.51493768  0.31156486    -0.09900
H1597       H  0.66965547  0.51291799  0.26425084     0.08000
H1598       H  0.66997077  0.53602540  0.27257993     0.11700
H1599       H  0.70424665  0.53229202  0.33063687     0.11400
H1600       H  0.70370279  0.50923836  0.32350378     0.08000
C1601       C  0.37185472  0.74979923  0.78051929    -0.11100
C1602       C  0.37592165  0.73793234  0.79306148     0.06000
C1603       C  0.36958460  0.73307396  0.82044468    -0.09900
C1604       C  0.35910630  0.73947496  0.83365213    -0.11500
C1605       C  0.35425729  0.75071856  0.81934196    -0.01300
C1606       C  0.36114438  0.75608985  0.79334659    -0.10400
C1607       C  0.38597265  0.73013837  0.77640969     0.06100
H1608       H  0.37225852  0.72396221  0.83087961     0.08000
H1609       H  0.35425375  0.73518781  0.85412222     0.11400
H1610       H  0.35830809  0.76500401  0.78230787     0.11700
H1611       H  0.37677441  0.75412910  0.76024490     0.08000
C1612       C  0.38709923  0.73037556  0.74234612    -0.11100
C1613       C  0.39537999  0.72197710  0.72635575    -0.10400
C1614       C  0.40267125  0.71302475  0.74392346    -0.01300
C1615       C  0.40194007  0.71305758  0.77795234    -0.11500
C1616       C  0.39379043  0.72157232  0.79400114    -0.09900
H1617       H  0.38116443  0.73664374  0.72776624     0.08000
H1618       H  0.39572341  0.72219339  0.70008940     0.11700
H1619       H  0.40753440  0.70636074  0.79220268     0.11400
H1620       H  0.39349206  0.72127417  0.82024277     0.08000
C1621       C  0.28200027  0.79796649  0.72457116    -0.11100
C1622       C  0.29170645  0.80358699  0.74358789     0.06000
C1623       C  0.29384714  0.81679280  0.74039905    -0.09900
C1624       C  0.28636572  0.82418852  0.71924090    -0.11500
C1625       C  0.27653414  0.81860104  0.70063521    -0.01300
C1626       C  0.27453417  0.80538324  0.70335703    -0.10400
C1627       C  0.29962947  0.79570994  0.76637522     0.06100
H1628       H  0.30113992  0.82149304  0.75480171     0.08000
H1629       H  0.28819411  0.83434953  0.71769945     0.11400
H1630       H  0.26692224  0.80081186  0.68997401     0.11700
H1631       H  0.28017835  0.78780321  0.72601078     0.08000
C1632       C  0.29416430  0.78563779  0.78420452    -0.11100
C1633       C  0.30175357  0.77785228  0.80423737    -0.10400
C1634       C  0.31499858  0.77988005  0.80691084    -0.01300
C1635       C  0.32038373  0.79023935  0.79003161    -0.11500
C1636       C  0.31281254  0.79803978  0.77005049    -0.09900
H1637       H  0.28401302  0.78368931  0.78246606     0.08000
H1638       H  0.29729328  0.76993626  0.81651746     0.11700
H1639       H  0.33053457  0.79218812  0.79178468     0.11400
H1640       H  0.31739247  0.80565145  0.75664241     0.08000
C1641       C  0.26115875  0.63659089  0.77009782    -0.11100
C1642       C  0.26321503  0.62510054  0.78681263     0.06000
C1643       C  0.25857789  0.62388401  0.81863097    -0.09900
C1644       C  0.25234006  0.63412044  0.83381347    -0.11500
C1645       C  0.25077987  0.64588566  0.81754135    -0.01300
C1646       C  0.25508415  0.64681208  0.78524532    -0.10400
C1647       C  0.27100348  0.61487936  0.77162158     0.06100
H1648       H  0.25996231  0.61505890  0.83194051     0.08000
H1649       H  0.24919785  0.63275559  0.85844872     0.11400
H1650       H  0.25411225  0.65570611  0.77198095     0.11700
H1651       H  0.26475673  0.63788210  0.74570440     0.08000
C1652       C  0.26913580  0.61160417  0.73885976    -0.11100
C1653       C  0.27752500  0.60320233  0.72335421    -0.10400
C1654       C  0.28795006  0.59788636  0.74030063    -0.01300
C1655       C  0.28952765  0.60076422  0.77339667    -0.11500
C1656       C  0.28113468  0.60917976  0.78890563    -0.09900
H1657       H  0.26134246  0.61578535  0.72504070     0.08000
H1658       H  0.27603592  0.60111764  0.69786858     0.11700
H1659       H  0.29753263  0.59689025  0.78700609     0.11400
H1660       H  0.28290685  0.61167390  0.81403658     0.08000
C1661       C  0.27969602  0.70171916  0.82414783    -0.11100
C1662       C  0.27867710  0.71140822  0.84743093     0.06000
C1663       C  0.26816289  0.71139150  0.86855017    -0.09900
C1664       C  0.25922747  0.70139046  0.86752210    -0.11500
C1665       C  0.26063659  0.69131729  0.84522552    -0.01300
C1666       C  0.27074941  0.69190226  0.82282220    -0.10400
C1667       C  0.28893994  0.72111142  0.84987131     0.06100
H1668       H  0.26713861  0.71883034  0.88660461     0.08000
H1669       H  0.25153038  0.70137126  0.88489107     0.11400
H1670       H  0.27186765  0.68473076  0.80416192     0.11700
H1671       H  0.28750854  0.70171005  0.80695943     0.08000
C1672       C  0.30175804  0.71717048  0.84957301    -0.11100
C1673       C  0.31160943  0.72610709  0.84877328    -0.10400
C1674       C  0.30894483  0.73929679  0.84768842    -0.01300
C1675       C  0.29608220  0.74323338  0.84986825    -0.11500
C1676       C  0.28616843  0.73422120  0.85092968    -0.09900
H1677       H  0.30416467  0.70710047  0.84970198     0.08000
H1678       H  0.32132378  0.72255318  0.84899606     0.11700
H1679       H  0.29354206  0.75321347  0.84995495     0.11400
H1680       H  0.27633694  0.73748947  0.85140537     0.08000
C1681       C  0.20368718  0.78011788  0.68099824    -0.11100
C1682       C  0.21188017  0.77978382  0.65420666     0.06000
C1683       C  0.21066789  0.76987139  0.63150273    -0.09900
C1684       C  0.20077497  0.76090406  0.63452961    -0.11500
C1685       C  0.19204980  0.76173654  0.66033767    -0.01300
C1686       C  0.19395647  0.77114722  0.68418313    -0.10400
C1687       C  0.22094271  0.79040713  0.64945093     0.06100
H1688       H  0.21695676  0.76944581  0.61071486     0.08000
H1689       H  0.19961523  0.75376733  0.61586971     0.11400
H1690       H  0.18771728  0.77179145  0.70501561     0.11700
H1691       H  0.20464195  0.78755810  0.69911598     0.08000
C1692       C  0.21624847  0.80293181  0.64862896    -0.11100
C1693       C  0.22461767  0.81326887  0.64901807    -0.10400
C1694       C  0.23794316  0.81135833  0.65107043    -0.01300
C1695       C  0.24262155  0.79873732  0.64919955    -0.11500
C1696       C  0.23417876  0.78833928  0.64844320    -0.09900
H1697       H  0.20603262  0.80471054  0.64854073     0.08000
H1698       H  0.22051104  0.82274409  0.64831290     0.11700
H1699       H  0.25273447  0.79673073  0.64952515     0.11400
H1700       H  0.23797220  0.77870699  0.64867448     0.08000
C1701       C  0.20470415  0.71603885  0.71929399    -0.11100
C1702       C  0.19912519  0.70762091  0.74171750     0.06000
C1703       C  0.18574226  0.70674338  0.74286585    -0.09900
C1704       C  0.17808849  0.71423670  0.72233332    -0.11500
C1705       C  0.18361588  0.72302024  0.70055728    -0.01300
C1706       C  0.19705635  0.72372357  0.69918029    -0.10400
C1707       C  0.20725094  0.69964957  0.76349953     0.06100
H1708       H  0.18119777  0.70015952  0.75949877     0.08000
H1709       H  0.16781300  0.71317819  0.72377788     0.11400
H1710       H  0.20175513  0.73052855  0.68350081     0.11700
H1711       H  0.21501168  0.71694548  0.71800284     0.08000
C1712       C  0.21753710  0.69270286  0.75071111    -0.11100
C1713       C  0.22503155  0.68493132  0.77078455    -0.10400
C1714       C  0.22253860  0.68402818  0.80424583    -0.01300
C1715       C  0.21247691  0.69121634  0.81732731    -0.11500
C1716       C  0.20478319  0.69884561  0.79703493    -0.09900
H1717       H  0.21964843  0.69311984  0.72501677     0.08000
H1718       H  0.23289118  0.67967524  0.76012964     0.11700
H1719       H  0.21042860  0.69073335  0.84304361     0.11400
H1720       H  0.19697220  0.70421300  0.80754185     0.08000
C1721       C  0.26936711  0.84434361  0.46849755    -0.11100
C1722       C  0.26852011  0.83256305  0.48485162     0.06000
C1723       C  0.26721804  0.82144492  0.46586472    -0.09900
C1724       C  0.26610494  0.82215595  0.43192779    -0.11500
C1725       C  0.26658310  0.83399154  0.41561515    -0.01300
C1726       C  0.26867202  0.84501676  0.43459628    -0.10400
C1727       C  0.26839287  0.83201896  0.52135911     0.06100
H1728       H  0.26685004  0.81212015  0.47715380     0.08000
H1729       H  0.26443877  0.81336144  0.41893133     0.11400
H1730       H  0.26955658  0.85434191  0.42360186     0.11700
H1731       H  0.27019797  0.85321049  0.48178770     0.08000
C1732       C  0.27451003  0.84150338  0.54015688    -0.11100
C1733       C  0.27314046  0.84183030  0.57396207    -0.10400
C1734       C  0.26590459  0.83250656  0.59007453    -0.01300
C1735       C  0.26041951  0.82260453  0.57178937    -0.11500
C1736       C  0.26152955  0.82242433  0.53788799    -0.09900
H1737       H  0.28023532  0.84884548  0.52883147     0.08000
H1738       H  0.27756095  0.84952504  0.58752019     0.11700
H1739       H  0.25461148  0.81539961  0.58349429     0.11400
H1740       H  0.25646869  0.81505782  0.52467779     0.08000
C1741       C  0.38416568  0.72522338  0.26573047    -0.11100
C1742       C  0.38267744  0.72577859  0.23179421     0.06000
C1743       C  0.39090633  0.71837199  0.21243492    -0.09900
C1744       C  0.40006714  0.71029930  0.22671483    -0.11500
C1745       C  0.40123722  0.70947533  0.26066938    -0.01300
C1746       C  0.39331342  0.71718357  0.27996303    -0.10400
C1747       C  0.37221471  0.73359459  0.21686407     0.06100
H1748       H  0.38997232  0.71847130  0.18625026     0.08000
H1749       H  0.40602184  0.70447329  0.21118181     0.11400
H1750       H  0.39400383  0.71682577  0.30618857     0.11700
H1751       H  0.37817935  0.73095912  0.28138753     0.08000
C1752       C  0.36011595  0.73420356  0.23151466    -0.11100
C1753       C  0.35013393  0.74112890  0.21715789    -0.10400
C1754       C  0.35177695  0.74747526  0.18728566    -0.01300
C1755       C  0.36405674  0.74719540  0.17315561    -0.11500
C1756       C  0.37409524  0.74031685  0.18771134    -0.09900
H1757       H  0.35823775  0.72906517  0.25380328     0.08000
H1758       H  0.34091856  0.74125188  0.22906717     0.11700
H1759       H  0.36614398  0.75226382  0.15102843     0.11400
H1760       H  0.38338006  0.74031544  0.17617048     0.08000
C1761       C  0.33695639  0.77657792  0.96435651    -0.11100
C1762       C  0.32766373  0.77015589  0.98299762     0.06000
C1763       C  0.31854959  0.76264788  0.96628427    -0.09900
C1764       C  0.31902617  0.76123811  0.93243879    -0.11500
C1765       C  0.32877131  0.76705506  0.91440831    -0.01300
C1766       C  0.33760898  0.77489208  0.93065067    -0.10400
C1767       C  0.32804283  0.77050355  0.01956989     0.06100
H1768       H  0.31135394  0.75732937  0.97933550     0.08000
H1769       H  0.31217452  0.75501691  0.92058372     0.11400
H1770       H  0.34514048  0.77961299  0.91725218     0.11700
H1771       H  0.34391333  0.78278963  0.97573654     0.08000
C1772       C  0.33972340  0.77207360  0.03634309    -0.11100
C1773       C  0.34038233  0.77104619  0.07020737    -0.10400
C1774       C  0.32946443  0.76805356  0.08859937    -0.01300
C1775       C  0.31766816  0.76711002  0.07211891    -0.11500
C1776       C  0.31694988  0.76844523  0.03822283    -0.09900
H1777       H  0.34857035  0.77355819  0.02339378     0.08000
H1778       H  0.34961397  0.77224045  0.08179204     0.11700
H1779       H  0.30900046  0.76477152  0.08502208     0.11400
H1780       H  0.30767785  0.76755038  0.02667351     0.08000
C1781       C  0.31536764  0.79717100  0.23959151    -0.11100
C1782       C  0.30199668  0.79589658  0.24153242     0.06000
C1783       C  0.29593619  0.78681459  0.22155029    -0.09900
C1784       C  0.30306930  0.77904014  0.20065306    -0.11500
C1785       C  0.31647150  0.78004879  0.19939246    -0.01300
C1786       C  0.32252220  0.78928819  0.21895232    -0.10400
C1787       C  0.29438824  0.80385780  0.26455007     0.06100
H1788       H  0.28564222  0.78568724  0.22217273     0.08000
H1789       H  0.29809408  0.77191149  0.18638115     0.11400
H1790       H  0.33282337  0.79034709  0.21851196     0.11700
H1791       H  0.32033712  0.80403560  0.25471405     0.08000
C1792       C  0.29670123  0.81702989  0.26775143    -0.11100
C1793       C  0.28911066  0.82456383  0.28821597    -0.10400
C1794       C  0.27910499  0.81910097  0.30630882    -0.01300
C1795       C  0.27709425  0.80587453  0.30390001    -0.11500
C1796       C  0.28458491  0.79835907  0.28319663    -0.09900
H1797       H  0.30413860  0.82158136  0.25367019     0.08000
H1798       H  0.29094431  0.83472990  0.28950494     0.11700
H1799       H  0.26937139  0.80138594  0.31687663     0.11400
H1800       H  0.28264104  0.78822007  0.28158633     0.08000
C1801       C  0.27755808  0.61617270  0.25770321    -0.11100
C1802       C  0.27580176  0.61597270  0.22380487     0.06000
C1803       C  0.28239281  0.60669542  0.20566387    -0.09900
C1804       C  0.29067444  0.59799663  0.22100354    -0.11500
C1805       C  0.29254975  0.59837522  0.25482027    -0.01300
C1806       C  0.28578457  0.60747971  0.27298997    -0.10400
C1807       C  0.26749758  0.62575238  0.20770780     0.06100
H1808       H  0.28116670  0.60616884  0.17958911     0.08000
H1809       H  0.29573512  0.59107885  0.20633682     0.11400
H1810       H  0.28707135  0.60809477  0.29904573     0.11700
H1811       H  0.27284562  0.62331003  0.27243491     0.08000
C1812       C  0.25622305  0.62996374  0.22271506    -0.11100
C1813       C  0.24920321  0.64020015  0.20997048    -0.10400
C1814       C  0.25331403  0.64668143  0.18182978    -0.01300
C1815       C  0.26401738  0.64171338  0.16536015    -0.11500
C1816       C  0.27107625  0.63147897  0.17822920    -0.09900
H1817       H  0.25289612  0.62544624  0.24477045     0.08000
H1818       H  0.24070811  0.64293117  0.22289922     0.11700
H1819       H  0.26732951  0.64622596  0.14327602     0.11400
H1820       H  0.27967522  0.62846652  0.16584567     0.08000
C1821       C  0.23886475  0.68119843  0.03740336    -0.11100
C1822       C  0.23039118  0.67290896  0.02103320     0.06000
C1823       C  0.22304930  0.66438707  0.03988994    -0.09900
C1824       C  0.22472936  0.66364134  0.07365408    -0.11500
C1825       C  0.23347835  0.67166718  0.08954489    -0.01300
C1826       C  0.24027832  0.68066497  0.07121212    -0.10400
C1827       C  0.23007370  0.67244143  0.98456412     0.06100
H1828       H  0.21617054  0.65806648  0.02857119     0.08000
H1829       H  0.21934322  0.65665367  0.08734062     0.11400
H1830       H  0.24723791  0.68683097  0.08284629     0.11700
H1831       H  0.24490414  0.68772313  0.02407528     0.08000
C1832       C  0.23287229  0.68330124  0.96561782    -0.11100
C1833       C  0.23436639  0.68235707  0.93184025    -0.10400
C1834       C  0.23298066  0.67055905  0.91586492    -0.01300
C1835       C  0.22913247  0.65995609  0.93454343    -0.11500
C1836       C  0.22787914  0.66083507  0.96826761    -0.09900
H1837       H  0.23423466  0.69253038  0.97691632     0.08000
H1838       H  0.23711716  0.69082424  0.91869148     0.11700
H1839       H  0.22739234  0.65077271  0.92339574     0.11400
H1840       H  0.22573987  0.65219189  0.98157377     0.08000
C1841       C  0.29381103  0.72777608  0.12045945    -0.11100
C1842       C  0.28604319  0.72511831  0.14737773     0.06000
C1843       C  0.28790692  0.73201161  0.17627228    -0.09900
C1844       C  0.29791127  0.74081339  0.17883637    -0.11500
C1845       C  0.30600591  0.74296324  0.15239633    -0.01300
C1846       C  0.30370764  0.73669571  0.12293478    -0.10400
C1847       C  0.27705966  0.71421419  0.14663374     0.06100
H1848       H  0.28212053  0.73002779  0.19742207     0.08000
H1849       H  0.29969573  0.74552561  0.20182031     0.11400
H1850       H  0.30997005  0.73823584  0.10242499     0.11700
H1851       H  0.29250404  0.72260341  0.09792858     0.08000
C1852       C  0.26448507  0.71549177  0.15802791    -0.11100
C1853       C  0.25647316  0.70481791  0.15993962    -0.10400
C1854       C  0.26100710  0.69267752  0.15111268    -0.01300
C1855       C  0.27349597  0.69146600  0.13911900    -0.11500
C1856       C  0.28141737  0.70214760  0.13671328    -0.09900
H1857       H  0.26094150  0.72471037  0.16583905     0.08000
H1858       H  0.24690491  0.70598226  0.16946356     0.11700
H1859       H  0.27716229  0.68223425  0.13179236     0.11400
H1860       H  0.29112335  0.70090710  0.12816576     0.08000
C1861       C  0.18201806  0.73898204  0.46928376    -0.11100
C1862       C  0.17246170  0.73199553  0.48558247     0.06000
C1863       C  0.16320567  0.72560488  0.46656827    -0.09900
C1864       C  0.16305485  0.72683301  0.43267260    -0.11500
C1865       C  0.17232433  0.73421506  0.41677048    -0.01300
C1866       C  0.18201225  0.73996490  0.43536389    -0.10400
C1867       C  0.17169135  0.73213679  0.52202895     0.06100
H1868       H  0.15588467  0.71982325  0.47779890     0.08000
H1869       H  0.15549467  0.72225794  0.41888032     0.11400
H1870       H  0.18914250  0.74592138  0.42386095     0.11700
H1871       H  0.18918802  0.74427221  0.48267037     0.08000
C1872       C  0.18271134  0.73374212  0.54142029    -0.11100
C1873       C  0.18180457  0.73535439  0.57513481    -0.10400
C1874       C  0.16985781  0.73530285  0.59079009    -0.01300
C1875       C  0.15893772  0.73272355  0.57158608    -0.11500
C1876       C  0.15981292  0.73136656  0.53785706    -0.09900
H1877       H  0.19211481  0.73394376  0.53058140     0.08000
H1878       H  0.19054797  0.73697731  0.58843251     0.11700
H1879       H  0.14954641  0.73196366  0.58223540     0.11400
H1880       H  0.15102722  0.73018003  0.52421183     0.08000
C1881       C  0.21517275  0.76931004  0.34796108    -0.11100
C1882       C  0.21315502  0.78076743  0.36513083     0.06000
C1883       C  0.20150658  0.78241024  0.38162240    -0.09900
C1884       C  0.19176555  0.77338815  0.37874672    -0.11500
C1885       C  0.19354799  0.76236552  0.36003189    -0.01300
C1886       C  0.20545618  0.76014361  0.34562882    -0.10400
C1887       C  0.22252298  0.79146777  0.36327361     0.06100
H1888       H  0.19973651  0.79087659  0.39598335     0.08000
H1889       H  0.18267743  0.77517110  0.39045070     0.11400
H1890       H  0.20696282  0.75174587  0.33085282     0.11700
H1891       H  0.22395594  0.76773231  0.33474818     0.08000
C1892       C  0.23577441  0.78923534  0.36136434    -0.11100
C1893       C  0.24431779  0.79940006  0.35691228    -0.10400
C1894       C  0.23980677  0.81202187  0.35400926    -0.01300
C1895       C  0.22660531  0.81423148  0.35758603    -0.11500
C1896       C  0.21811050  0.80413487  0.36171678    -0.09900
H1897       H  0.23955383  0.77962746  0.36312643     0.08000
H1898       H  0.25437719  0.79723382  0.35517558     0.11700
H1899       H  0.22268073  0.82378787  0.35706400     0.11400
H1900       H  0.20799571  0.80631026  0.36270505     0.08000
C1901       C  0.20709285  0.70069736  0.20834722    -0.11100
C1902       C  0.20915154  0.70096286  0.24219434     0.06000
C1903       C  0.21895021  0.69334726  0.25535271    -0.09900
C1904       C  0.22643413  0.68561699  0.23536957    -0.11500
C1905       C  0.22434983  0.68525033  0.20158599    -0.01300
C1906       C  0.21469537  0.69299779  0.18821446    -0.10400
C1907       C  0.20117846  0.70911590  0.26387374     0.06100
H1908       H  0.22075080  0.69324632  0.28126202     0.08000
H1909       H  0.23399712  0.68001977  0.24646630     0.11400
H1910       H  0.21290228  0.69295558  0.16230419     0.11700
H1911       H  0.19969886  0.70656387  0.19741074     0.08000
C1912       C  0.18788388  0.70992917  0.25942761    -0.11100
C1913       C  0.18040203  0.71750322  0.27995169    -0.10400
C1914       C  0.18601328  0.72471335  0.30524920    -0.01300
C1915       C  0.19932275  0.72368085  0.30993736    -0.11500
C1916       C  0.20678093  0.71597914  0.28961286    -0.09900
H1917       H  0.18322175  0.70453852  0.24032079     0.08000
H1918       H  0.17018050  0.71758232  0.27586644     0.11700
H1919       H  0.20414502  0.72902478  0.32874619     0.11400
H1920       H  0.21702226  0.71562427  0.29362313     0.08000
C1921       C  0.27706176  0.38548056  0.73418710    -0.11100
C1922       C  0.27421027  0.38620911  0.76745513     0.06000
C1923       C  0.28030350  0.39564341  0.78628779    -0.09900
C1924       C  0.28914759  0.40404184  0.77220575    -0.11500
C1925       C  0.29214812  0.40312390  0.73904223    -0.01300
C1926       C  0.28592456  0.39380252  0.72019484    -0.10400
C1927       C  0.26547590  0.37664206  0.78243305     0.06100
H1928       H  0.27825516  0.39649783  0.81193405     0.08000
H1929       H  0.29376127  0.41113740  0.78736132     0.11400
H1930       H  0.28803797  0.39280440  0.69461221     0.11700
H1931       H  0.27271372  0.37819956  0.71909326     0.08000
C1932       C  0.25435795  0.37263379  0.76608225    -0.11100
C1933       C  0.24713508  0.36235400  0.77768895    -0.10400
C1934       C  0.25093776  0.35566476  0.80590785    -0.01300
C1935       C  0.26146390  0.36045512  0.82364265    -0.11500
C1936       C  0.26868157  0.37072891  0.81199009    -0.09900
H1937       H  0.25141722  0.37726172  0.74372675     0.08000
H1938       H  0.23887518  0.35961487  0.76362385     0.11700
H1939       H  0.26456848  0.35572072  0.84571516     0.11400
H1940       H  0.27717380  0.37358509  0.82526697     0.08000
C1941       C  0.20408424  0.30280522  0.77507094    -0.11100
C1942       C  0.20634389  0.30253570  0.74135763     0.06000
C1943       C  0.21663657  0.30960512  0.72900223    -0.09900
C1944       C  0.22434900  0.31689853  0.74960821    -0.11500
C1945       C  0.22204383  0.31729045  0.78319755    -0.01300
C1946       C  0.21195118  0.31002465  0.79585237    -0.10400
C1947       C  0.19805261  0.29496744  0.71896201     0.06100
H1948       H  0.21860972  0.30967640  0.70322334     0.08000
H1949       H  0.23222121  0.32220058  0.73920256     0.11400
H1950       H  0.21001572  0.31012107  0.82165266     0.11700
H1951       H  0.19630897  0.29733451  0.78537188     0.08000
C1952       C  0.18470356  0.29501535  0.72231945    -0.11100
C1953       C  0.17694247  0.28785990  0.70131308    -0.10400
C1954       C  0.18230884  0.28017306  0.67667531    -0.01300
C1955       C  0.19567880  0.28060435  0.67269227    -0.11500
C1956       C  0.20341989  0.28784917  0.69352583    -0.09900
H1957       H  0.18023236  0.30070928  0.74104862     0.08000
H1958       H  0.16671743  0.28842587  0.70471316     0.11700
H1959       H  0.20037015  0.27516616  0.65406614     0.11400
H1960       H  0.21368718  0.28763243  0.69015647     0.08000
C1961       C  0.36671085  0.27258162  0.79358342    -0.11100
C1962       C  0.37264554  0.26841768  0.76494393     0.06000
C1963       C  0.36871497  0.25676930  0.75128769    -0.09900
C1964       C  0.35868513  0.24976439  0.76493894    -0.11500
C1965       C  0.35215771  0.25429947  0.79256374    -0.01300
C1966       C  0.35669600  0.26558077  0.80727781    -0.10400
C1967       C  0.38246353  0.27647157  0.74863456     0.06100
H1968       H  0.37335511  0.25308785  0.72978756     0.08000
H1969       H  0.35618569  0.24090677  0.75326587     0.11400
H1970       H  0.35210421  0.26926690  0.82884783     0.11700
H1971       H  0.36945975  0.28152560  0.80478328     0.08000
C1972       C  0.38247469  0.27777640  0.71462450    -0.11100
C1973       C  0.39105783  0.28605879  0.69936380    -0.10400
C1974       C  0.39986251  0.29320136  0.71773131    -0.01300
C1975       C  0.40012972  0.29162995  0.75160438    -0.11500
C1976       C  0.39151272  0.28338267  0.76688872    -0.09900
H1977       H  0.37554842  0.27272184  0.69983139     0.08000
H1978       H  0.39062308  0.28706094  0.67321062     0.11700
H1979       H  0.40682870  0.29698208  0.76640110     0.11400
H1980       H  0.39188854  0.28246944  0.79305614     0.08000
C1981       C  0.28749299  0.27048540  0.80396019    -0.11100
C1982       C  0.28634341  0.27807320  0.83196702     0.06000
C1983       C  0.29507477  0.27624570  0.85767057    -0.09900
C1984       C  0.30507315  0.26744063  0.85485423    -0.11500
C1985       C  0.30650581  0.26034015  0.82632453    -0.01300
C1986       C  0.29756017  0.26172317  0.80110691    -0.10400
C1987       C  0.27687995  0.28866000  0.83317043     0.06100
H1988       H  0.29435144  0.28188174  0.87961868     0.08000
H1989       H  0.31196531  0.26649424  0.87444538     0.11400
H1990       H  0.29864101  0.25635008  0.77882303     0.11700
H1991       H  0.28099401  0.27178398  0.78366347     0.08000
C1992       C  0.28079278  0.30083671  0.84347111    -0.11100
C1993       C  0.27233018  0.31114572  0.84249303    -0.10400
C1994       C  0.25971320  0.30952962  0.83137447    -0.01300
C1995       C  0.25561982  0.29728767  0.82202434    -0.11500
C1996       C  0.26417076  0.28695099  0.82263884    -0.09900
H1997       H  0.29055022  0.30248347  0.85137727     0.08000
H1998       H  0.27570077  0.32043784  0.85025713     0.11700
H1999       H  0.24596112  0.29579993  0.81318188     0.11400
H2000       H  0.26089741  0.27765047  0.81467421     0.08000
C2001       C  0.22947341  0.21263088  0.60908663    -0.11100
C2002       C  0.21960533  0.21322984  0.63195805     0.06000
C2003       C  0.21886547  0.20397313  0.65636925    -0.09900
C2004       C  0.22764706  0.19399653  0.65744473    -0.11500
C2005       C  0.23722312  0.19292749  0.63371264    -0.01300
C2006       C  0.23823656  0.20249838  0.60992622    -0.10400
C2007       C  0.20948175  0.22291912  0.62964147     0.06100
H2008       H  0.21135821  0.20439781  0.67438519     0.08000
H2009       H  0.22683350  0.18703903  0.67677966     0.11400
H2010       H  0.24546789  0.20195126  0.59138289     0.11700
H2011       H  0.23010603  0.21972713  0.59001132     0.08000
C2012       C  0.21206204  0.23582102  0.63581131    -0.11100
C2013       C  0.20201131  0.24464353  0.63726744    -0.10400
C2014       C  0.18930490  0.24065612  0.63244523    -0.01300
C2015       C  0.18691087  0.22778654  0.62482840    -0.11500
C2016       C  0.19689053  0.21899550  0.62372411    -0.09900
H2017       H  0.22175922  0.23894832  0.64067767     0.08000
H2018       H  0.20417950  0.25442637  0.64327532     0.11700
H2019       H  0.17729039  0.22444924  0.61998560     0.11400
H2020       H  0.19477933  0.20905525  0.61873549     0.08000
C2021       C  0.28091076  0.19260863  0.73062761    -0.11100
C2022       C  0.29105022  0.19976454  0.71780701     0.06000
C2023       C  0.29307515  0.19948548  0.68400017    -0.09900
C2024       C  0.28508949  0.19221499  0.66355258    -0.11500
C2025       C  0.27515251  0.18483029  0.67662712    -0.01300
C2026       C  0.27312470  0.18519807  0.71037203    -0.10400
C2027       C  0.29939177  0.20747533  0.73982436     0.06100
H2028       H  0.30074612  0.20501087  0.67338353     0.08000
H2029       H  0.28682072  0.19216947  0.63765629     0.11400
H2030       H  0.26538427  0.17982211  0.72115950     0.11700
H2031       H  0.27911282  0.19259741  0.75649667     0.08000
C2032       C  0.29401538  0.21529220  0.76394455    -0.11100
C2033       C  0.30180001  0.22274725  0.78427697    -0.10400
C2034       C  0.31521036  0.22244354  0.78142014    -0.01300
C2035       C  0.32057179  0.21419028  0.75804043    -0.11500
C2036       C  0.31276993  0.20694456  0.73728666    -0.09900
H2037       H  0.28372500  0.21593822  0.76642539     0.08000
H2038       H  0.29720823  0.22910025  0.80131341     0.11700
H2039       H  0.33083474  0.21337894  0.75543791     0.11400
H2040       H  0.31720568  0.20081958  0.71939426     0.08000
C2041       C  0.28644450  0.38989170  0.20177975    -0.11100
C2042       C  0.27546818  0.38500465  0.21691673     0.06000
C2043       C  0.27282623  0.38877463  0.24897587    -0.09900
C2044       C  0.28116021  0.39694097  0.26581263    -0.11500
C2045       C  0.29239156  0.40145495  0.25106634    -0.01300
C2046       C  0.29483240  0.39797267  0.21869268    -0.10400
C2047       C  0.26748651  0.37512883  0.20043112     0.06100
H2048       H  0.26440217  0.38521460  0.26121456     0.08000
H2049       H  0.27897211  0.39945989  0.29066430     0.11400
H2050       H  0.30340525  0.40125410  0.20663195     0.11700
H2051       H  0.28882363  0.38703777  0.17727759     0.08000
C2052       C  0.26375049  0.37635709  0.16770131    -0.11100
C2053       C  0.25711605  0.36646039  0.15184571    -0.10400
C2054       C  0.25424634  0.35499041  0.16830950    -0.01300
C2055       C  0.25789166  0.35398648  0.20122269    -0.11500
C2056       C  0.26427375  0.36390635  0.21707133    -0.09900
H2057       H  0.26610825  0.38492769  0.15426739     0.08000
H2058       H  0.25474882  0.36776755  0.12654550     0.11700
H2059       H  0.25608694  0.34526586  0.21460387     0.11400
H2060       H  0.26719021  0.36256036  0.24210911     0.08000
C2061       C  0.22902759  0.34065583  0.01686805    -0.11100
C2062       C  0.23043297  0.32883480  0.00093471     0.06000
C2063       C  0.23346579  0.31806926  0.02003078    -0.09900
C2064       C  0.23585709  0.31924897  0.05343259    -0.11500
C2065       C  0.23505212  0.33119530  0.06904691    -0.01300
C2066       C  0.23115270  0.34178148  0.05033834    -0.10400
C2067       C  0.22981488  0.32804578  0.96451114     0.06100
H2068       H  0.23431954  0.30871194  0.00911902     0.08000
H2069       H  0.23884228  0.31079296  0.06646094     0.11400
H2070       H  0.23000453  0.35109600  0.06126638     0.11700
H2071       H  0.22682743  0.34926016  0.00339859     0.08000
C2072       C  0.22244880  0.33680682  0.94624824    -0.11100
C2073       C  0.22363063  0.33751846  0.91241546    -0.10400
C2074       C  0.23186809  0.32921764  0.89583400    -0.01300
C2075       C  0.23843804  0.31979522  0.91351670    -0.11500
C2076       C  0.23753589  0.31928693  0.94743049    -0.09900
H2077       H  0.21604500  0.34343185  0.95809318     0.08000
H2078       H  0.21837853  0.34480495  0.89923657     0.11700
H2079       H  0.24497252  0.31337189  0.90133655     0.11400
H2080       H  0.24351521  0.31248786  0.96021638     0.08000
C2081       C  0.15983312  0.27180232  0.44330416    -0.11100
C2082       C  0.17139177  0.26987069  0.46041497     0.06000
C2083       C  0.18243408  0.26721703  0.44203662    -0.09900
C2084       C  0.18177364  0.26592021  0.40809551    -0.11500
C2085       C  0.17010568  0.26752351  0.39121879    -0.01300
C2086       C  0.15925875  0.27088358  0.40944415    -0.10400
C2087       C  0.17163576  0.27000428  0.49706029     0.06100
H2088       H  0.19162603  0.26592980  0.45376658     0.08000
H2089       H  0.19039706  0.26320395  0.39550065     0.11400
H2090       H  0.15012045  0.27255043  0.39778906     0.11700
H2091       H  0.15098096  0.27361783  0.45593657     0.08000
C2092       C  0.16229929  0.27679399  0.51474271    -0.11100
C2093       C  0.16134991  0.27553724  0.54849881    -0.10400
C2094       C  0.16997735  0.26784128  0.56586692    -0.01300
C2095       C  0.17987820  0.26176340  0.54886542    -0.11500
C2096       C  0.18062523  0.26270660  0.51490126    -0.09900
H2097       H  0.15549769  0.28297047  0.50260587     0.08000
H2098       H  0.15371950  0.28045838  0.56106277     0.11700
H2099       H  0.18660180  0.25565403  0.56161571     0.11400
H2100       H  0.18790516  0.25718234  0.50271692     0.08000
C2101       C  0.19969030  0.29641199  0.27496707    -0.11100
C2102       C  0.20161321  0.29351208  0.24193360     0.06000
C2103       C  0.19582260  0.28252923  0.22901711    -0.09900
C2104       C  0.18802991  0.27483416  0.24828726    -0.11500
C2105       C  0.18588960  0.27784203  0.28107460    -0.01300
C2106       C  0.19200347  0.28854479  0.29448438    -0.10400
C2107       C  0.20946807  0.30189910  0.22065575     0.06100
H2108       H  0.19706484  0.28005121  0.20370802     0.08000
H2109       H  0.18358471  0.26650969  0.23746273     0.11400
H2110       H  0.19054459  0.29100279  0.31972659     0.11700
H2111       H  0.20416272  0.30473911  0.28567596     0.08000
C2112       C  0.20801228  0.31523785  0.22135714    -0.11100
C2113       C  0.21519265  0.32305570  0.20067769    -0.10400
C2114       C  0.22415044  0.31774013  0.17906992    -0.01300
C2115       C  0.22553966  0.30437380  0.17839312    -0.11500
C2116       C  0.21824521  0.29656713  0.19874784    -0.09900
H2117       H  0.20117626  0.31961469  0.23759774     0.08000
H2118       H  0.21371973  0.33327997  0.20171554     0.11700
H2119       H  0.23257308  0.29987719  0.16298681     0.11400
H2120       H  0.21968517  0.28632696  0.19787496     0.08000
C2121       C  0.37591320  0.25371856  0.19851004    -0.11100
C2122       C  0.37971119  0.26572877  0.18661453     0.06000
C2123       C  0.37317574  0.27074939  0.15954082    -0.09900
C2124       C  0.36270529  0.26431970  0.14605594    -0.11500
C2125       C  0.35814483  0.25286585  0.15974992    -0.01300
C2126       C  0.36529408  0.24737103  0.18533382    -0.10400
C2127       C  0.38981295  0.27337167  0.20357276     0.06100
H2128       H  0.37572330  0.27996950  0.14960433     0.08000
H2129       H  0.35765639  0.26870840  0.12589656     0.11400
H2130       H  0.36276435  0.23828996  0.19582368     0.11700
H2131       H  0.38101534  0.24928984  0.21850380     0.08000
C2132       C  0.39094040  0.27300037  0.23764455    -0.11100
C2133       C  0.39952829  0.28101736  0.25394730    -0.10400
C2134       C  0.40713996  0.28971159  0.23668048    -0.01300
C2135       C  0.40633661  0.28985857  0.20263143    -0.11500
C2136       C  0.39783196  0.28174198  0.18626294    -0.09900
H2137       H  0.38481657  0.26688215  0.25195473     0.08000
H2138       H  0.39987805  0.28071159  0.28021765     0.11700
H2139       H  0.41213195  0.29640704  0.18863597     0.11400
H2140       H  0.39744583  0.28214943  0.16002427     0.08000
C2141       C  0.31871596  0.23714680  0.94222696    -0.11100
C2142       C  0.32974429  0.23366744  0.96005096     0.06000
C2143       C  0.34083889  0.23050756  0.94243955    -0.09900
C2144       C  0.34105016  0.23135983  0.90844484    -0.11500
C2145       C  0.33022685  0.23551977  0.89088089    -0.01300
C2146       C  0.31898218  0.23814257  0.90826074    -0.10400
C2147       C  0.32992316  0.23414830  0.99661574     0.06100
H2148       H  0.34960188  0.22788854  0.95484918     0.08000
H2149       H  0.34984747  0.22906136  0.89598319     0.11400
H2150       H  0.31046969  0.24149393  0.89586224     0.11700
H2151       H  0.30985471  0.23934396  0.95448144     0.08000
C2152       C  0.32228363  0.24304984  0.01344526    -0.11100
C2153       C  0.32313769  0.24429366  0.04725311    -0.10400
C2154       C  0.33176445  0.23684130  0.06526022    -0.01300
C2155       C  0.33926324  0.22778834  0.04890899    -0.11500
C2156       C  0.33824001  0.22633186  0.01509254    -0.09900
H2157       H  0.31600709  0.24952237  0.00048208     0.08000
H2158       H  0.31755341  0.25161151  0.05909587     0.11700
H2159       H  0.34602467  0.22193936  0.06230447     0.11400
H2160       H  0.34411033  0.21916997  0.00348170     0.08000
C2161       C  0.29112564  0.26987285  0.11648314    -0.11100
C2162       C  0.29055622  0.27985262  0.13928996     0.06000
C2163       C  0.30050088  0.28093248  0.16223431    -0.09900
C2164       C  0.31077379  0.27243460  0.16216958    -0.11500
C2165       C  0.31160182  0.26270931  0.13874801    -0.01300
C2166       C  0.30150174  0.26137228  0.11630515    -0.10400
C2167       C  0.27991866  0.28936723  0.13898521     0.06100
H2168       H  0.30055436  0.28855758  0.17995522     0.08000
H2169       H  0.31807803  0.27356940  0.18063201     0.11400
H2170       H  0.30164088  0.25392922  0.09817958     0.11700
H2171       H  0.28354305  0.26859882  0.09879049     0.08000
C2172       C  0.27448553  0.29371932  0.10957623    -0.11100
C2173       C  0.26549076  0.30366771  0.10947698    -0.10400
C2174       C  0.26195213  0.30950351  0.13867914    -0.01300
C2175       C  0.26691303  0.30487122  0.16803383    -0.11500
C2176       C  0.27566887  0.29481651  0.16824702    -0.09900
H2177       H  0.27758704  0.28985373  0.08656126     0.08000
H2178       H  0.26179762  0.30722311  0.08657706     0.11700
H2179       H  0.26416086  0.30921883  0.19081884     0.11400
H2180       H  0.27929257  0.29148573  0.19141401     0.08000
C2181       C  0.27716372  0.16642882  0.44159016    -0.11100
C2182       C  0.26975801  0.17525859  0.45935928     0.06000
C2183       C  0.26211104  0.18397613  0.44174001    -0.09900
C2184       C  0.26140107  0.18342086  0.40776917    -0.11500
C2185       C  0.26806631  0.17397139  0.39054677    -0.01300
C2186       C  0.27614417  0.16564757  0.40772206    -0.10400
C2187       C  0.26917447  0.17462506  0.49581696     0.06100
H2188       H  0.25612662  0.19083666  0.45411327     0.08000
H2189       H  0.25501708  0.18990848  0.39513730     0.11400
H2190       H  0.28149237  0.15836743  0.39494585     0.11700
H2191       H  0.28356270  0.15985174  0.45380379     0.08000
C2192       C  0.27088214  0.16289248  0.51198119    -0.11100
C2193       C  0.26920353  0.16186544  0.54550729    -0.10400
C2194       C  0.26530652  0.17242321  0.56420668    -0.01300
C2195       C  0.26424674  0.18432369  0.54845054    -0.11500
C2196       C  0.26618444  0.18542227  0.51480613    -0.09900
H2197       H  0.27304584  0.15425495  0.49872056     0.08000
H2198       H  0.27071267  0.15259759  0.55646444     0.11700
H2199       H  0.26152636  0.19277260  0.56167216     0.11400
H2200       H  0.26512887  0.19473635  0.50370189     0.08000
C2201       C  0.23252587  0.21428990  0.31146176    -0.11100
C2202       C  0.22268541  0.21334913  0.33456451     0.06000
C2203       C  0.22248872  0.20268855  0.35543301    -0.09900
C2204       C  0.23144226  0.19288627  0.35197232    -0.11500
C2205       C  0.24090462  0.19370894  0.32813255    -0.01300
C2206       C  0.24159549  0.20456012  0.30840540    -0.10400
C2207       C  0.21206876  0.22281747  0.33484295     0.06100
H2208       H  0.21524504  0.20177688  0.37397827     0.08000
H2209       H  0.23089135  0.18456350  0.36755943     0.11400
H2210       H  0.24875460  0.20521786  0.28959737     0.11700
H2211       H  0.23287218  0.22222591  0.29463391     0.08000
C2212       C  0.21425258  0.23576465  0.32747142    -0.11100
C2213       C  0.20400805  0.24430366  0.32446422    -0.10400
C2214       C  0.19140017  0.24007048  0.32886310    -0.01300
C2215       C  0.18925240  0.22727354  0.33744478    -0.11500
C2216       C  0.19944337  0.21874398  0.34027127    -0.09900
H2217       H  0.22386322  0.23926975  0.32357197     0.08000
H2218       H  0.20594110  0.25410207  0.31765755     0.11700
H2219       H  0.17964717  0.22378779  0.34158473     0.11400
H2220       H  0.19733495  0.20883681  0.34551793     0.08000
C2221       C  0.29857389  0.21899939  0.19863511    -0.11100
C2222       C  0.30392474  0.20895072  0.21691361     0.06000
C2223       C  0.31701310  0.20620817  0.21317154    -0.09900
C2224       C  0.32460664  0.21351533  0.19229843    -0.11500
C2225       C  0.31930562  0.22373422  0.17453663    -0.01300
C2226       C  0.30616114  0.22627753  0.17765661    -0.10400
C2227       C  0.29588429  0.20133716  0.23966003     0.06100
H2228       H  0.32146839  0.19859069  0.22698952     0.08000
H2229       H  0.33468593  0.21125859  0.19036673     0.11400
H2230       H  0.30179361  0.23419513  0.16480473     0.11700
H2231       H  0.28849470  0.22125540  0.20058545     0.08000
C2232       C  0.28659167  0.20727240  0.25915927    -0.11100
C2233       C  0.27877078  0.20002519  0.27969895    -0.10400
C2234       C  0.27993453  0.18665761  0.28091111    -0.01300
C2235       C  0.28948436  0.18078289  0.26212086    -0.11500
C2236       C  0.29735560  0.18801869  0.24182309    -0.09900
H2237       H  0.28535582  0.21754040  0.25850731     0.08000
H2238       H  0.27157026  0.20488654  0.29382970     0.11700
H2239       H  0.29081397  0.17053035  0.26282623     0.11400
H2240       H  0.30437760  0.18312257  0.22712546     0.08000
C2241       C  0.10843368  0.78271847  0.72012033    -0.11100
C2242       C  0.11476681  0.77286243  0.73698972     0.06000
C2243       C  0.11141429  0.77045847  0.76941390    -0.09900
C2244       C  0.10236050  0.77810205  0.78506680    -0.11500
C2245       C  0.09651964  0.78837688  0.76870647    -0.01300
C2246       C  0.09941895  0.79041176  0.73583110    -0.10400
C2247       C  0.12537269  0.76566887  0.72143512     0.06100
H2248       H  0.11600007  0.76281510  0.78287171     0.08000
H2249       H  0.10029616  0.77625725  0.81037587     0.11400
H2250       H  0.09511886  0.79827976  0.72261050     0.11700
H2251       H  0.11087892  0.78485552  0.69518714     0.08000
C2252       C  0.12432526  0.76141409  0.68923730    -0.11100
C2253       C  0.13461687  0.75534235  0.67398005    -0.10400
C2254       C  0.14635192  0.75348857  0.69047568    -0.01300
C2255       C  0.14721510  0.75760452  0.72300401    -0.11500
C2256       C  0.13688608  0.76354132  0.73828977    -0.09900
H2257       H  0.11551832  0.76284154  0.67574282     0.08000
H2258       H  0.13320562  0.75245856  0.64914836     0.11700
H2259       H  0.15607221  0.75645105  0.73646834     0.11400
H2260       H  0.13806067  0.76685707  0.76302152     0.08000
C2261       C  0.98575636  0.80694072  0.80165175    -0.11100
C2262       C  0.99314514  0.81815289  0.80412040     0.06000
C2263       C  0.98670255  0.82986653  0.80820040    -0.09900
C2264       C  0.97332970  0.83031888  0.81048558    -0.11500
C2265       C  0.96602521  0.81907013  0.80897753    -0.01300
C2266       C  0.97239294  0.80738946  0.80421682    -0.10400
C2267       C  0.00747755  0.81759278  0.80394411     0.06100
H2268       H  0.99200440  0.83868648  0.81074796     0.08000
H2269       H  0.96873398  0.83946080  0.81439805     0.11400
H2270       H  0.96704911  0.79854652  0.80285623     0.11700
H2271       H  0.99029513  0.79776593  0.79789074     0.08000
C2272       C  0.01400481  0.80726981  0.81845005    -0.11100
C2273       C  0.02738950  0.80704265  0.82001502    -0.10400
C2274       C  0.03465315  0.81717044  0.80737401    -0.01300
C2275       C  0.02820826  0.82739065  0.79235126    -0.11500
C2276       C  0.01479811  0.82757078  0.79051006    -0.09900
H2277       H  0.00877901  0.79950980  0.82958242     0.08000
H2278       H  0.03204634  0.79905643  0.83193859     0.11700
H2279       H  0.03352919  0.83531350  0.78225750     0.11400
H2280       H  0.01017100  0.83557236  0.77862078     0.08000
C2281       C  0.10367467  0.22117049  0.67947710    -0.11100
C2282       C  0.11174762  0.22917049  0.69794679     0.06000
C2283       C  0.11059346  0.22891044  0.73198097    -0.09900
C2284       C  0.10192791  0.22069462  0.74711713    -0.11500
C2285       C  0.09425518  0.21236753  0.72875116    -0.01300
C2286       C  0.09507215  0.21282962  0.69471097    -0.10400
C2287       C  0.12189417  0.23714700  0.68231247     0.06100
H2288       H  0.11675643  0.23469219  0.74718548     0.08000
H2289       H  0.10158569  0.22054105  0.77338530     0.11400
H2290       H  0.08923369  0.20657529  0.67986430     0.11700
H2291       H  0.10408883  0.22123304  0.65323099     0.08000
C2292       C  0.12844867  0.23274783  0.65476711    -0.11100
C2293       C  0.13897303  0.23945055  0.64262545    -0.10400
C2294       C  0.14355287  0.25056538  0.65811244    -0.01300
C2295       C  0.13639794  0.25545581  0.68423083    -0.11500
C2296       C  0.12573681  0.24884787  0.69605910    -0.09900
H2297       H  0.12586744  0.22379349  0.64339650     0.08000
H2298       H  0.14403498  0.23552729  0.62202168     0.11700
H2299       H  0.13893925  0.26426003  0.69614613     0.11400
H2300       H  0.12062632  0.25283747  0.71647285     0.08000
C2301       C  0.85850233  0.23724548  0.69991827    -0.11100
C2302       C  0.86675791  0.22920211  0.68234750     0.06000
C2303       C  0.86462174  0.22774475  0.64882986    -0.09900
C2304       C  0.85455086  0.23410860  0.63333571    -0.11500
C2305       C  0.84637614  0.24226102  0.65077667    -0.01300
C2306       C  0.84841746  0.24367693  0.68431317    -0.10400
C2307       C  0.87736025  0.22209305  0.69880879     0.06100
H2308       H  0.87081905  0.22175267  0.63436570     0.08000
H2309       H  0.85313984  0.23252598  0.60760924     0.11400
H2310       H  0.84236264  0.24989454  0.69848207     0.11700
H2311       H  0.85972383  0.23845015  0.72584239     0.08000
C2312       C  0.88442309  0.22759592  0.72443900    -0.11100
C2313       C  0.89414591  0.22067048  0.74020612    -0.10400
C2314       C  0.89707098  0.20813483  0.73050685    -0.01300
C2315       C  0.89018191  0.20275125  0.70455750    -0.11500
C2316       C  0.88043476  0.20959376  0.68905406    -0.09900
H2317       H  0.88245496  0.23726294  0.73229123     0.08000
H2318       H  0.89927829  0.22507039  0.76016601     0.11700
H2319       H  0.89208684  0.19306538  0.69671467     0.11400
H2320       H  0.87508453  0.20492355  0.66989185     0.08000
C2321       C  0.98234802  0.17037932  0.74495640    -0.11100
C2322       C  0.98994671  0.18127092  0.75048130     0.06000
C2323       C  0.98376544  0.19284395  0.75807664    -0.09900
C2324       C  0.97044295  0.19342769  0.76104720    -0.11500
C2325       C  0.96291899  0.18244515  0.75669762    -0.01300
C2326       C  0.96900329  0.17095675  0.74809507    -0.10400
C2327       C  0.00424499  0.18052231  0.75012847     0.06100
H2328       H  0.98924899  0.20139290  0.76304537     0.08000
H2329       H  0.96607519  0.20240733  0.76790856     0.11400
H2330       H  0.96347320  0.16232440  0.74452698     0.11700
H2331       H  0.98672034  0.16135409  0.73855666     0.08000
C2332       C  0.01070570  0.16972329  0.76246887    -0.11100
C2333       C  0.02408877  0.16959214  0.76519556    -0.10400
C2334       C  0.03132481  0.18028343  0.75586539    -0.01300
C2335       C  0.02493662  0.19085895  0.74239413    -0.11500
C2336       C  0.01159303  0.19094827  0.73937654    -0.09900
H2337       H  0.00540967  0.16156369  0.77132945     0.08000
H2338       H  0.02873063  0.16131090  0.77577206     0.11700
H2339       H  0.03024718  0.19919858  0.73470509     0.11400
H2340       H  0.00701638  0.19930562  0.72904595     0.08000
C2341       C  0.23748428  0.12548981  0.65579236    -0.11100
C2342       C  0.23254835  0.12634466  0.68737623     0.06000
C2343       C  0.23465639  0.13756352  0.70519041    -0.09900
C2344       C  0.24122367  0.14781225  0.69152804    -0.11500
C2345       C  0.24595621  0.14722055  0.65959858    -0.01300
C2346       C  0.24419186  0.13576008  0.64208168    -0.10400
C2347       C  0.22474640  0.11590484  0.70165195     0.06100
H2348       H  0.23081916  0.13860278  0.72941859     0.08000
H2349       H  0.24226353  0.15647428  0.70566652     0.11400
H2350       H  0.24754971  0.13465038  0.61756133     0.11700
H2351       H  0.23606629  0.11689706  0.64160723     0.08000
C2352       C  0.21480924  0.11014665  0.68378113    -0.11100
C2353       C  0.20643071  0.10153602  0.69877657    -0.10400
C2354       C  0.20792368  0.09843845  0.73181730    -0.01300
C2355       C  0.21824709  0.10371556  0.74914216    -0.11500
C2356       C  0.22652457  0.11237404  0.73427616    -0.09900
H2357       H  0.21316136  0.11274800  0.65865365     0.08000
H2358       H  0.19857727  0.09759274  0.68478064     0.11700
H2359       H  0.21968962  0.10148793  0.77457638     0.11400
H2360       H  0.23419090  0.11653632  0.74852882     0.08000
C2361       C  0.13112691  0.11694723  0.80375966    -0.11100
C2362       C  0.12441808  0.11869256  0.77441978     0.06000
C2363       C  0.12811047  0.11154134  0.74713711    -0.09900
C2364       C  0.13834636  0.10291576  0.74909090    -0.11500
C2365       C  0.14517638  0.10134871  0.77829347    -0.01300
C2366       C  0.14140987  0.10841527  0.80564095    -0.10400
C2367       C  0.11392705  0.12828148  0.77215921     0.06100
H2368       H  0.12305991  0.11261173  0.72427908     0.08000
H2369       H  0.14102638  0.09760676  0.72762402     0.11400
H2370       H  0.14649478  0.10744344  0.82848723     0.11700
H2371       H  0.12862907  0.12243245  0.82508905     0.08000
C2372       C  0.10497024  0.12952006  0.79730296    -0.11100
C2373       C  0.09573869  0.13920459  0.79640766    -0.10400
C2374       C  0.09528149  0.14791239  0.77041037    -0.01300
C2375       C  0.10395265  0.14641618  0.74473144    -0.11500
C2376       C  0.11315779  0.13668676  0.74556410    -0.09900
H2377       H  0.10521472  0.12308739  0.81790361     0.08000
H2378       H  0.08919298  0.14009958  0.81657625     0.11700
H2379       H  0.10390126  0.15302419  0.72448990     0.11400
H2380       H  0.11999820  0.13605102  0.72597723     0.08000
C2381       C  0.21708510  0.89645916  0.70464099    -0.11100
C2382       C  0.22517103  0.88845179  0.72314677     0.06000
C2383       C  0.22482930  0.88951744  0.75720248    -0.09900
C2384       C  0.21653715  0.89811367  0.77229103    -0.11500
C2385       C  0.20819250  0.90576785  0.75384810    -0.01300
C2386       C  0.20862536  0.90494362  0.71983138    -0.10400
C2387       C  0.23331513  0.87845717  0.70747828     0.06100
H2388       H  0.23063037  0.88337178  0.77245216     0.08000
H2389       H  0.21636088  0.89844225  0.79856219     0.11400
H2390       H  0.20233742  0.91076687  0.70496574     0.11700
H2391       H  0.21719535  0.89612438  0.67839062     0.08000
C2392       C  0.22915412  0.87214390  0.67922867    -0.11100
C2393       C  0.23597964  0.86174281  0.66691858    -0.10400
C2394       C  0.24694310  0.85701673  0.68298376    -0.01300
C2395       C  0.25162628  0.86393151  0.70985803    -0.11500
C2396       C  0.24492902  0.87451196  0.72179837    -0.09900
H2397       H  0.22028656  0.87480438  0.66735383     0.08000
H2398       H  0.23227054  0.85689868  0.64563939     0.11700
H2399       H  0.26036540  0.86128337  0.72214821     0.11400
H2400       H  0.24878031  0.87946909  0.74271482     0.08000
C2401       C  0.14160563  0.87823481  0.81832332    -0.11100
C2402       C  0.13048906  0.87935183  0.79918732     0.06000
C2403       C  0.12868469  0.89055013  0.78074297    -0.09900
C2404       C  0.13789848  0.90029834  0.78110490    -0.11500
C2405       C  0.14905445  0.89905246  0.80004017    -0.01300
C2406       C  0.15075037  0.88793612  0.81873100    -0.10400
C2407       C  0.12088979  0.86882914  0.79886769     0.06100
H2408       H  0.12025497  0.89168285  0.76562872     0.08000
H2409       H  0.13631773  0.90877040  0.76651988     0.11400
H2410       H  0.15919288  0.88670043  0.83376865     0.11700
H2411       H  0.14318943  0.86988760  0.83336463     0.08000
C2412       C  0.12492723  0.85600801  0.79944375    -0.11100
C2413       C  0.11604199  0.84608757  0.80173339    -0.10400
C2414       C  0.10287283  0.84871262  0.80331995    -0.01300
C2415       C  0.09876353  0.86148167  0.80148570    -0.11500
C2416       C  0.10768221  0.87144350  0.79932590    -0.09900
H2417       H  0.13500318  0.85363119  0.79842208     0.08000
H2418       H  0.11951578  0.83634411  0.80281575     0.11700
H2419       H  0.08867849  0.86379675  0.80274919     0.11400
H2420       H  0.10425309  0.88120543  0.79915628     0.08000
C2421       C  0.18866575  0.98700159  0.75373595    -0.11100
C2422       C  0.17777345  0.99454182  0.75975090     0.06000
C2423       C  0.16653042  0.98840803  0.77022297    -0.09900
C2424       C  0.16635721  0.97519414  0.77573392    -0.11500
C2425       C  0.17745288  0.96783089  0.77125093    -0.01300
C2426       C  0.18853329  0.97384351  0.75965650    -0.10400
C2427       C  0.17843485  0.00878053  0.75751175     0.06100
H2428       H  0.15800122  0.99387431  0.77555085     0.08000
H2429       H  0.15769131  0.97083231  0.78482168     0.11400
H2430       H  0.19720238  0.96839946  0.75569395     0.11700
H2431       H  0.19740636  0.99129781  0.74495360     0.08000
C2432       C  0.18963801  0.01525737  0.76702639    -0.11100
C2433       C  0.18999075  0.02859405  0.76809149    -0.10400
C2434       C  0.17911067  0.03584316  0.76008833    -0.01300
C2435       C  0.16805431  0.02946561  0.74929795    -0.11500
C2436       C  0.16773656  0.01608218  0.74788476    -0.09900
H2437       H  0.19801045  0.01003669  0.77511856     0.08000
H2438       H  0.19864165  0.03321064  0.77663858     0.11700
H2439       H  0.15954274  0.03480534  0.74275413     0.11400
H2440       H  0.15902920  0.01145585  0.73980359     0.08000
C2441       C  0.75093392  0.12862114  0.75603637    -0.11100
C2442       C  0.76112586  0.12294201  0.73919277     0.06000
C2443       C  0.76389533  0.12717708  0.70772153    -0.09900
C2444       C  0.75712335  0.13731650  0.69410832    -0.11500
C2445       C  0.74735240  0.14354399  0.71145105    -0.01300
C2446       C  0.74407020  0.13879510  0.74230931    -0.10400
C2447       C  0.76965947  0.11348801  0.75515401     0.06100
H2448       H  0.77178430  0.12312969  0.69422788     0.08000
H2449       H  0.75994721  0.14074203  0.67037436     0.11400
H2450       H  0.73665742  0.14312761  0.75670773     0.11700
H2451       H  0.74849643  0.12541025  0.78022218     0.08000
C2452       C  0.77383887  0.11544558  0.78724061    -0.11100
C2453       C  0.78312662  0.10748778  0.80103637    -0.10400
C2454       C  0.78844463  0.09744295  0.78297955    -0.01300
C2455       C  0.78395795  0.09520326  0.75130931    -0.11500
C2456       C  0.77464260  0.10313445  0.73754915    -0.09900
H2457       H  0.77032870  0.12345668  0.80123338     0.08000
H2458       H  0.78640447  0.10942763  0.82552020     0.11700
H2459       H  0.78780610  0.08745285  0.73694407     0.11400
H2460       H  0.77149808  0.10131204  0.71289776     0.08000
C2461       C  0.88828869  0.13023229  0.76264917    -0.11100
C2462       C  0.88030617  0.12859731  0.78972373     0.06000
C2463       C  0.88097453  0.13752874  0.81511004    -0.09900
C2464       C  0.88947137  0.14776853  0.81373079    -0.11500
C2465       C  0.89757407  0.14936701  0.78694655    -0.01300
C2466       C  0.89690634  0.14050398  0.76134601    -0.10400
C2467       C  0.87127946  0.11767179  0.79215871     0.06100
H2468       H  0.87479332  0.13667107  0.83602139     0.08000
H2469       H  0.88967464  0.15446293  0.83375713     0.11400
H2470       H  0.90299773  0.14153709  0.74032469     0.11700
H2471       H  0.88799510  0.12347271  0.74278057     0.08000
C2472       C  0.86335207  0.11413164  0.76595512    -0.11100
C2473       C  0.85386983  0.10476959  0.77001198    -0.10400
C2474       C  0.85221572  0.09879994  0.80030547    -0.01300
C2475       C  0.86058032  0.10192396  0.82587240    -0.11500
C2476       C  0.86998595  0.11121022  0.82184131    -0.09900
H2477       H  0.86411849  0.11898047  0.74281676     0.08000
H2478       H  0.84755163  0.10255182  0.74988241     0.11700
H2479       H  0.85965275  0.09741320  0.84941472     0.11400
H2480       H  0.87611695  0.11353639  0.84226741     0.08000
C2481       C  0.85481734  0.87590868  0.83202461    -0.11100
C2482       C  0.86693308  0.87931735  0.82010924     0.06000
C2483       C  0.86867273  0.89172732  0.80774764    -0.09900
C2484       C  0.85866605  0.90065389  0.80851635    -0.11500
C2485       C  0.84670743  0.89730658  0.82142474    -0.01300
C2486       C  0.84484063  0.88477866  0.83264787    -0.10400
C2487       C  0.87774688  0.87004872  0.82187025     0.06100
H2488       H  0.87789094  0.89467605  0.79852917     0.08000
H2489       H  0.86036294  0.91023783  0.79961964     0.11400
H2490       H  0.83572550  0.88188485  0.84264158     0.11700
H2491       H  0.85305283  0.86636416  0.84110145     0.08000
C2492       C  0.87912185  0.86210546  0.84918656    -0.11100
C2493       C  0.88891290  0.85305955  0.85082709    -0.10400
C2494       C  0.89767488  0.85172263  0.82529277    -0.01300
C2495       C  0.89657792  0.85987126  0.79827723    -0.11500
C2496       C  0.88669473  0.86895141  0.79657177    -0.09900
H2497       H  0.87261678  0.86289021  0.86946454     0.08000
H2498       H  0.88954256  0.84700718  0.87211567     0.11700
H2499       H  0.90316626  0.85903086  0.77818945     0.11400
H2500       H  0.88586887  0.87488709  0.77512615     0.08000
C2501       C  0.82776792  0.98451615  0.78945238    -0.11100
C2502       C  0.81816687  0.99252845  0.80193280     0.06000
C2503       C  0.80795289  0.98699804  0.81895049    -0.09900
C2504       C  0.80742681  0.97381767  0.82384094    -0.11500
C2505       C  0.81709472  0.96581261  0.81182742    -0.01300
C2506       C  0.82721947  0.97127102  0.79428400    -0.10400
C2507       C  0.81899069  0.00665273  0.79885949     0.06100
H2508       H  0.80053023  0.99291222  0.82938066     0.08000
H2509       H  0.79953390  0.96991931  0.83759041     0.11400
H2510       H  0.83480941  0.96533334  0.78474419     0.11700
H2511       H  0.83571360  0.98850002  0.77606634     0.08000
C2512       C  0.83063879  0.01302081  0.80435614    -0.11100
C2513       C  0.83106978  0.02637631  0.80549145    -0.10400
C2514       C  0.81986599  0.03361893  0.80113063    -0.01300
C2515       C  0.80834641  0.02727448  0.79407355    -0.11500
C2516       C  0.80791870  0.01394286  0.79290568    -0.09900
H2517       H  0.83930755  0.00767476  0.80929880     0.08000
H2518       H  0.84007809  0.03100767  0.81104095     0.11700
H2519       H  0.79956763  0.03260069  0.79039846     0.11400
H2520       H  0.79884665  0.00931401  0.78806222     0.08000
C2521       C  0.75911709  0.13814222  0.28740848    -0.11100
C2522       C  0.76462095  0.12802242  0.30520147     0.06000
C2523       C  0.76262719  0.12765133  0.33885894    -0.09900
C2524       C  0.75590022  0.13735960  0.35450328    -0.11500
C2525       C  0.75056521  0.14767783  0.33697172    -0.01300
C2526       C  0.75210047  0.14775488  0.30301426    -0.10400
C2527       C  0.77275201  0.11812231  0.28917097     0.06100
H2528       H  0.76638273  0.11988272  0.35342204     0.08000
H2529       H  0.75527757  0.13675444  0.38058942     0.11400
H2530       H  0.74802552  0.15524139  0.28817920     0.11700
H2531       H  0.76047942  0.13885749  0.26144938     0.08000
C2532       C  0.77027331  0.11414330  0.25712325    -0.11100
C2533       C  0.77816571  0.10513910  0.24201878    -0.10400
C2534       C  0.78868296  0.09982162  0.25862160    -0.01300
C2535       C  0.79107952  0.10361810  0.29073084    -0.11500
C2536       C  0.78326383  0.11268249  0.30575313    -0.09900
H2537       H  0.76219432  0.11792395  0.24366763     0.08000
H2538       H  0.77610184  0.10244056  0.21716734     0.11700
H2539       H  0.79917786  0.09978779  0.30406489     0.11400
H2540       H  0.78571621  0.11565989  0.33014484     0.08000
C2541       C  0.82314752  0.06532465  0.05075281    -0.11100
C2542       C  0.81326653  0.07124340  0.03297122     0.06000
C2543       C  0.80310512  0.07693773  0.04992679    -0.09900
C2544       C  0.80309750  0.07712040  0.08389862    -0.11500
C2545       C  0.81326284  0.07164248  0.10152523    -0.01300
C2546       C  0.82316978  0.06556479  0.08461206    -0.10400
C2547       C  0.81392416  0.07190864  0.99697915     0.06100
H2548       H  0.79539187  0.08164824  0.03697186     0.08000
H2549       H  0.79532380  0.08186294  0.09633162     0.11400
H2550       H  0.83107097  0.06115609  0.09754309     0.11700
H2551       H  0.83095845  0.06058911  0.03846472     0.08000
C2552       C  0.82573343  0.07400414  0.98169845    -0.11100
C2553       C  0.82653749  0.07454507  0.94795419    -0.10400
C2554       C  0.81554344  0.07308132  0.92860928    -0.01300
C2555       C  0.80368084  0.07116463  0.94373491    -0.11500
C2556       C  0.80287700  0.07057319  0.97762503    -0.09900
H2557       H  0.83437887  0.07537605  0.99585733     0.08000
H2558       H  0.83580048  0.07614230  0.93701205     0.11700
H2559       H  0.79504921  0.07001521  0.92938355     0.11400
H2560       H  0.79365209  0.06886831  0.98864065     0.08000
C2561       C  0.82895864  0.92930278  0.99341168    -0.11100
C2562       C  0.81819869  0.92578149  0.01168637     0.06000
C2563       C  0.80705461  0.92186453  0.99523623    -0.09900
C2564       C  0.80663601  0.92159663  0.96128987    -0.11500
C2565       C  0.81734930  0.92526245  0.94306092    -0.01300
C2566       C  0.82853525  0.92904907  0.95948140    -0.10400
C2567       C  0.81860572  0.92611145  0.04776172     0.06100
H2568       H  0.79868728  0.91888449  0.00864965     0.08000
H2569       H  0.79791507  0.91853852  0.94931844     0.11400
H2570       H  0.83694751  0.93192311  0.94609443     0.11700
H2571       H  0.83764949  0.93245630  0.00535733     0.08000
C2572       C  0.82943788  0.92168502  0.06471751    -0.11100
C2573       C  0.82967151  0.92161598  0.09864822    -0.10400
C2574       C  0.81910242  0.92601868  0.11641872    -0.01300
C2575       C  0.80837091  0.93069834  0.09952560    -0.11500
C2576       C  0.80811081  0.93070686  0.06554634    -0.09900
H2577       H  0.83763894  0.91801210  0.05174204     0.08000
H2578       H  0.83812186  0.91803565  0.11098037     0.11700
H2579       H  0.80014294  0.93427593  0.11256316     0.11400
H2580       H  0.79971693  0.93437968  0.05315122     0.08000
C2581       C  0.80480901  0.98654829  0.24393515    -0.11100
C2582       C  0.81592330  0.99414845  0.24461296     0.06000
C2583       C  0.82788798  0.98798071  0.24600834    -0.09900
C2584       C  0.82873340  0.97462758  0.24574863    -0.11500
C2585       C  0.81764588  0.96707107  0.24393591    -0.01300
C2586       C  0.80566287  0.97318135  0.24353201    -0.10400
C2587       C  0.81511889  0.00838906  0.24214328     0.06100
H2588       H  0.83666000  0.99346840  0.24605179     0.08000
H2589       H  0.83811564  0.97022734  0.24582394     0.11400
H2590       H  0.79693677  0.96763373  0.24216286     0.11700
H2591       H  0.79542528  0.99093308  0.24337244     0.08000
C2592       C  0.80594148  0.01419971  0.22182369    -0.11100
C2593       C  0.80571157  0.02747146  0.21764807    -0.10400
C2594       C  0.81471365  0.03530973  0.23343390    -0.01300
C2595       C  0.82371762  0.02958596  0.25430600    -0.11500
C2596       C  0.82387877  0.01629348  0.25873344    -0.09900
H2597       H  0.79917843  0.00846325  0.20821688     0.08000
H2598       H  0.79870619  0.03156469  0.20119051     0.11700
H2599       H  0.83073400  0.03537071  0.26693115     0.11400
H2600       H  0.83094550  0.01219585  0.27499016     0.08000
C2601       C  0.11736696  0.22581950  0.21263216    -0.11100
C2602       C  0.11629841  0.22785630  0.24631305     0.06000
C2603       C  0.10647591  0.22150494  0.26310809    -0.09900
C2604       C  0.09810235  0.21322241  0.24676486    -0.11500
C2605       C  0.09931659  0.21109774  0.21321908    -0.01300
C2606       C  0.10898712  0.21757711  0.19632458    -0.10400
C2607       C  0.12579352  0.23608806  0.26376431     0.06100
H2608       H  0.10524946  0.22291830  0.28893052     0.08000
H2609       H  0.09076463  0.20835538  0.26050123     0.11400
H2610       H  0.11025223  0.21608710  0.17052643     0.11700
H2611       H  0.12494573  0.23029752  0.19890565     0.08000
C2612       C  0.13035082  0.23277854  0.29484612    -0.11100
C2613       C  0.14045094  0.23955745  0.30921386    -0.10400
C2614       C  0.14640078  0.24978361  0.29291776    -0.01300
C2615       C  0.14110966  0.25367375  0.26288415    -0.11500
C2616       C  0.13100606  0.24691323  0.24859563    -0.09900
H2617       H  0.12659981  0.22452167  0.30742575     0.08000
H2618       H  0.14410887  0.23636206  0.33249676     0.11700
H2619       H  0.14480460  0.26165491  0.24939982     0.11400
H2620       H  0.12744205  0.25004507  0.22517774     0.08000
C2621       C  0.08663146  0.18549529  0.93472194    -0.11100
C2622       C  0.07575167  0.18859790  0.95307656     0.06000
C2623       C  0.06444604  0.19207615  0.93655452    -0.09900
C2624       C  0.06397322  0.19217229  0.90257439    -0.11500
C2625       C  0.07478001  0.18876435  0.88437783    -0.01300
C2626       C  0.08614189  0.18555106  0.90082488    -0.10400
C2627       C  0.07616235  0.18791651  0.98922011     0.06100
H2628       H  0.05583895  0.19436820  0.94985176     0.08000
H2629       H  0.05505753  0.19461129  0.89056536     0.11400
H2630       H  0.09463383  0.18287164  0.88748889     0.11700
H2631       H  0.09556723  0.18301085  0.94654893     0.08000
C2632       C  0.08322825  0.17826058  0.00497399    -0.11100
C2633       C  0.08357694  0.17750243  0.03883607    -0.10400
C2634       C  0.07684471  0.18635122  0.05783812    -0.01300
C2635       C  0.06980884  0.19603835  0.04224192    -0.11500
C2636       C  0.06946213  0.19680857  0.00830903    -0.09900
H2637       H  0.08831494  0.17110525  0.99113433     0.08000
H2638       H  0.08903795  0.16989277  0.05014395     0.11700
H2639       H  0.06449661  0.20297722  0.05626370     0.11400
H2640       H  0.06405072  0.20445729  0.99705093     0.08000
C2641       C  0.88381971  0.22442372  0.20979113    -0.11100
C2642       C  0.88325238  0.22593361  0.24369705     0.06000
C2643       C  0.89221937  0.21928320  0.26304871    -0.09900
C2644       C  0.90124229  0.21111088  0.24888414    -0.11500
C2645       C  0.90161297  0.20952443  0.21504006    -0.01300
C2646       C  0.89292581  0.21641834  0.19568110    -0.10400
C2647       C  0.87293310  0.23388463  0.25856087     0.06100
H2648       H  0.89224913  0.22032590  0.28918227     0.08000
H2649       H  0.90782556  0.20592318  0.26443730     0.11400
H2650       H  0.89287247  0.21530701  0.16954549     0.11700
H2651       H  0.87694294  0.22908768  0.19402212     0.08000
C2652       C  0.86801829  0.24469602  0.24235869    -0.11100
C2653       C  0.85739600  0.25130413  0.25440949    -0.10400
C2654       C  0.85141116  0.24732771  0.28325007    -0.01300
C2655       C  0.85686150  0.23698945  0.30040282    -0.11500
C2656       C  0.86736695  0.23031607  0.28818641    -0.09900
H2657       H  0.87226974  0.24799180  0.21996652     0.08000
H2658       H  0.85387059  0.25926731  0.24038089     0.11700
H2659       H  0.85255203  0.23367136  0.32273749     0.11400
H2660       H  0.87072262  0.22200102  0.30134249     0.08000
C2661       C  0.93037578  0.17382671  0.01084620    -0.11100
C2662       C  0.92870419  0.18560454  0.99501563     0.06000
C2663       C  0.92683029  0.19665808  0.01378310    -0.09900
C2664       C  0.92649229  0.19591368  0.04768629    -0.11500
C2665       C  0.92792840  0.18408443  0.06340223    -0.01300
C2666       C  0.92994610  0.17307066  0.04464810    -0.10400
C2667       C  0.92848312  0.18622413  0.95903359     0.06100
H2668       H  0.92564072  0.20588022  0.00221983     0.08000
H2669       H  0.92493681  0.20455442  0.06155747     0.11400
H2670       H  0.93109463  0.16381946  0.05609759     0.11700
H2671       H  0.93168320  0.16512728  0.99704496     0.08000
C2672       C  0.93722362  0.17907411  0.94064951    -0.11100
C2673       C  0.93653962  0.17910837  0.90676538    -0.10400
C2674       C  0.92712339  0.18631905  0.89055824    -0.01300
C2675       C  0.91853539  0.19365259  0.90888132    -0.11500
C2676       C  0.91919986  0.19359420  0.94278585    -0.09900
H2677       H  0.94456869  0.17341732  0.95249908     0.08000
H2678       H  0.94330858  0.17338452  0.89325598     0.11700
H2679       H  0.91110926  0.19920357  0.89703877     0.11400
H2680       H  0.91222019  0.19904337  0.95632495     0.08000
C2681       C  0.88733866  0.13342824  0.21915105    -0.11100
C2682       C  0.87877824  0.13030902  0.19384966     0.06000
C2683       C  0.88021743  0.13648380  0.16371508    -0.09900
C2684       C  0.88959169  0.14579476  0.15931056    -0.11500
C2685       C  0.89797061  0.14907035  0.18470501    -0.01300
C2686       C  0.89687075  0.14268381  0.21457203    -0.10400
C2687       C  0.86818288  0.12092578  0.19864998     0.06100
H2688       H  0.87409968  0.13411756  0.14331666     0.08000
H2689       H  0.89026314  0.15045063  0.13588657     0.11400
H2690       H  0.90318732  0.14504207  0.23459911     0.11700
H2691       H  0.88647872  0.12897284  0.24275374     0.08000
C2692       C  0.86969152  0.11004516  0.21852250    -0.11100
C2693       C  0.85975703  0.10109021  0.22159306    -0.10400
C2694       C  0.84815934  0.10281571  0.20472210    -0.01300
C2695       C  0.84658803  0.11380948  0.18553097    -0.11500
C2696       C  0.85639100  0.12275365  0.18271784    -0.09900
H2697       H  0.87864293  0.10827080  0.23106459     0.08000
H2698       H  0.86122542  0.09273304  0.23667040     0.11700
H2699       H  0.83772309  0.11553647  0.17251405     0.11400
H2700       H  0.85465771  0.13116809  0.16804731     0.08000
C2701       C  0.01547144  0.16794422  0.19743200    -0.11100
C2702       C  0.00780133  0.17873572  0.19090057     0.06000
C2703       C  0.01392404  0.19018712  0.18205195    -0.09900
C2704       C  0.02724958  0.19082431  0.17952547    -0.11500
C2705       C  0.03488085  0.18001133  0.18550176    -0.01300
C2706       C  0.02884897  0.16857059  0.19469544    -0.10400
C2707       C  0.99349368  0.17809111  0.19221375     0.06100
H2708       H  0.00840092  0.19863298  0.17613531     0.08000
H2709       H  0.03156140  0.19975672  0.17209509     0.11400
H2710       H  0.03445959  0.16006313  0.19944276     0.11700
H2711       H  0.01114598  0.15900167  0.20468137     0.08000
C2712       C  0.98684020  0.16712649  0.18177469    -0.11100
C2713       C  0.97341838  0.16701620  0.18038810    -0.10400
C2714       C  0.96632096  0.17787420  0.18930189    -0.01300
C2715       C  0.97292710  0.18864557  0.20081394    -0.11500
C2716       C  0.98630792  0.18873383  0.20239413    -0.09900
H2717       H  0.99199543  0.15878699  0.17344873     0.08000
H2718       H  0.96861689  0.15857347  0.17129541     0.11700
H2719       H  0.96775484  0.19714008  0.20804100     0.11400
H2720       H  0.99103119  0.19724198  0.21130841     0.08000
C2721       C  0.22073778  0.11123092  0.26693579    -0.11100
C2722       C  0.22998968  0.11760564  0.24831495     0.06000
C2723       C  0.23090160  0.11472909  0.21505448    -0.09900
C2724       C  0.22246490  0.10602697  0.20055809    -0.11500
C2725       C  0.21286977  0.10005924  0.21894831    -0.01300
C2726       C  0.21224489  0.10259392  0.25239773    -0.10400
C2727       C  0.23783619  0.12800214  0.26295848     0.06100
H2728       H  0.23800468  0.11939513  0.20012155     0.08000
H2729       H  0.22322633  0.10425191  0.17474317     0.11400
H2730       H  0.20496162  0.09815697  0.26721288     0.11700
H2731       H  0.21969047  0.11334532  0.29250994     0.08000
C2732       C  0.23926944  0.13962750  0.24642584    -0.11100
C2733       C  0.24537841  0.14994923  0.26126468    -0.10400
C2734       C  0.25035595  0.14900683  0.29305143    -0.01300
C2735       C  0.24939940  0.13714509  0.30911276    -0.11500
C2736       C  0.24314442  0.12680489  0.29426712    -0.09900
H2737       H  0.23516411  0.14094298  0.22246252     0.08000
H2738       H  0.24589123  0.15890904  0.24815514     0.11700
H2739       H  0.25308639  0.13577447  0.33335781     0.11400
H2740       H  0.24229258  0.11789945  0.30747446     0.08000
C2741       C  0.17591992  0.06559420  0.94209133    -0.11100
C2742       C  0.18405601  0.07393969  0.95914579     0.06000
C2743       C  0.19191312  0.08228782  0.94139491    -0.09900
C2744       C  0.19147027  0.08242813  0.90739785    -0.11500
C2745       C  0.18318797  0.07419812  0.89043273    -0.01300
C2746       C  0.17549864  0.06571493  0.90816265    -0.10400
C2747       C  0.18412466  0.07407137  0.99528738     0.06100
H2748       H  0.19818611  0.08892456  0.95381621     0.08000
H2749       H  0.19747185  0.08911260  0.89441529     0.11400
H2750       H  0.16904166  0.05923308  0.89581205     0.11700
H2751       H  0.16988715  0.05892230  0.95501749     0.08000
C2752       C  0.17258840  0.07316606  0.01255131    -0.11100
C2753       C  0.17256821  0.07333431  0.04648871    -0.10400
C2754       C  0.18408289  0.07441443  0.06401526    -0.01300
C2755       C  0.19563527  0.07529310  0.04683390    -0.11500
C2756       C  0.19565506  0.07513805  0.01282811    -0.09900
H2757       H  0.16352989  0.07253159  0.99978232     0.08000
H2758       H  0.16350155  0.07274239  0.05900916     0.11700
H2759       H  0.20466141  0.07614057  0.05967306     0.11400
H2760       H  0.20470696  0.07572350  0.00024786     0.08000
C2761       C  0.12118054  0.14197014  0.20599020    -0.11100
C2762       C  0.11938377  0.12998546  0.19138273     0.06000
C2763       C  0.10763182  0.12737051  0.17601339    -0.09900
C2764       C  0.09818410  0.13686090  0.17357221    -0.11500
C2765       C  0.10026086  0.14904806  0.18692859    -0.01300
C2766       C  0.11170910  0.15136026  0.20395515    -0.10400
C2767       C  0.13017925  0.12076472  0.18980909     0.06100
H2768       H  0.10601906  0.11822073  0.16445721     0.08000
H2769       H  0.08944622  0.13480320  0.16035006     0.11400
H2770       H  0.11360542  0.16064063  0.21452583     0.11700
H2771       H  0.13008569  0.14418872  0.21830199     0.08000
C2772       C  0.14234143  0.12504510  0.18038191    -0.11100
C2773       C  0.15254450  0.11650761  0.17763487    -0.10400
C2774       C  0.15089299  0.10348025  0.18459183    -0.01300
C2775       C  0.13877008  0.09916973  0.19444087    -0.11500
C2776       C  0.12846616  0.10772734  0.19675844    -0.09900
H2777       H  0.14390050  0.13500215  0.17443852     0.08000
H2778       H  0.16174858  0.12012299  0.16993044     0.11700
H2779       H  0.13721170  0.08916824  0.19985203     0.11400
H2780       H  0.11919002  0.10419146  0.20413318     0.08000
C2781       C  0.24286862  0.87896178  0.31080389    -0.11100
C2782       C  0.23674086  0.87710940  0.28071658     0.06000
C2783       C  0.23727048  0.86494678  0.26643857    -0.09900
C2784       C  0.24339442  0.85482610  0.28229191    -0.11500
C2785       C  0.24903168  0.85644041  0.31317583    -0.01300
C2786       C  0.24896559  0.86880242  0.32680521    -0.10400
C2787       C  0.22922707  0.88756557  0.26503440     0.06100
H2788       H  0.23256159  0.86310671  0.24344695     0.08000
H2789       H  0.24337846  0.84552158  0.27080353     0.11400
H2790       H  0.25348899  0.87084829  0.34977199     0.11700
H2791       H  0.24289199  0.88829248  0.32212607     0.08000
C2792       C  0.22150838  0.89567680  0.28384697    -0.11100
C2793       C  0.21339563  0.90460742  0.26902998    -0.10400
C2794       C  0.21279205  0.90564370  0.23504535    -0.01300
C2795       C  0.22090642  0.89794745  0.21623602    -0.11500
C2796       C  0.22903157  0.88901041  0.23106033    -0.09900
H2797       H  0.22130843  0.89475172  0.31001723     0.08000
H2798       H  0.20726329  0.91039990  0.28419596     0.11700
H2799       H  0.22071542  0.89857215  0.18999483     0.11400
H2800       H  0.23501469  0.88307593  0.21587313     0.08000
C2801       C  0.19103817  0.92448608  0.03107243    -0.11100
C2802       C  0.18275974  0.93298003  0.01478921     0.06000
C2803       C  0.17449427  0.94064175  0.03335733    -0.09900
C2804       C  0.17448923  0.93980123  0.06725853    -0.11500
C2805       C  0.18281112  0.93135004  0.08342937    -0.01300
C2806       C  0.19108481  0.92370732  0.06497696    -0.10400
C2807       C  0.18254811  0.93360288  0.97862176     0.06100
H2808       H  0.16810353  0.94740285  0.02172224     0.08000
H2809       H  0.16801441  0.94583510  0.08082467     0.11400
H2810       H  0.19754006  0.91703555  0.07673896     0.11700
H2811       H  0.19734578  0.91825432  0.01759987     0.08000
C2812       C  0.19388134  0.93222991  0.96060552    -0.11100
C2813       C  0.19354178  0.93210702  0.92661938    -0.10400
C2814       C  0.18186971  0.93340557  0.90989050    -0.01300
C2815       C  0.17060224  0.93514953  0.92781623    -0.11500
C2816       C  0.17092829  0.93521810  0.96173603    -0.09900
H2817       H  0.20303073  0.93120527  0.97277216     0.08000
H2818       H  0.20238829  0.93078951  0.91346026     0.11700
H2819       H  0.16144774  0.93613952  0.91563119     0.11400
H2820       H  0.16199377  0.93613447  0.97470636     0.08000
C2821       C  0.19461276  0.98984855  0.20472261    -0.11100
C2822       C  0.18392498  0.99646320  0.21689229     0.06000
C2823       C  0.17347547  0.98925807  0.22828392    -0.09900
C2824       C  0.17351218  0.97588349  0.22617043    -0.11500
C2825       C  0.18404633  0.96939922  0.21293010    -0.01300
C2826       C  0.19469736  0.97652246  0.20297026    -0.10400
C2827       C  0.18345116  0.01075149  0.21547438     0.06100
H2828       H  0.16517149  0.99394172  0.23841919     0.08000
H2829       H  0.16517941  0.97064270  0.23421976     0.11400
H2830       H  0.20294730  0.97182323  0.19255169     0.11700
H2831       H  0.20275614  0.99495233  0.19511878     0.08000
C2832       C  0.19472471  0.01805549  0.21821531    -0.11100
C2833       C  0.19457617  0.03123228  0.21238698    -0.10400
C2834       C  0.18311525  0.03750973  0.20431869    -0.01300
C2835       C  0.17171394  0.03041452  0.20355323    -0.11500
C2836       C  0.17188488  0.01719039  0.20881925    -0.09900
H2837       H  0.20376299  0.01356649  0.22423281     0.08000
H2838       H  0.20349466  0.03647343  0.21357478     0.11700
H2839       H  0.16272510  0.03498701  0.19737535     0.11400
H2840       H  0.16301539  0.01196788  0.20610872     0.08000
C2841       C  0.11094392  0.78555598  0.30000910    -0.11100
C2842       C  0.11805493  0.77734390  0.27997082     0.06000
C2843       C  0.11586521  0.77766899  0.24628024    -0.09900
C2844       C  0.10715911  0.78632375  0.23281162    -0.11500
C2845       C  0.10038600  0.79482814  0.25271143    -0.01300
C2846       C  0.10220017  0.79422207  0.28650149    -0.10400
C2847       C  0.12834305  0.76912187  0.29377226     0.06100
H2848       H  0.12102433  0.77132888  0.23022506     0.08000
H2849       H  0.10592797  0.78652298  0.20669579     0.11400
H2850       H  0.09711996  0.80067649  0.30243278     0.11700
H2851       H  0.11250103  0.78564169  0.32601291     0.08000
C2852       C  0.14005282  0.76796032  0.27752323    -0.11100
C2853       C  0.15010167  0.76100726  0.29118405    -0.10400
C2854       C  0.14883172  0.75499534  0.32159164    -0.01300
C2855       C  0.13692377  0.75582876  0.33743135    -0.11500
C2856       C  0.12683278  0.76285226  0.32369390    -0.09900
H2857       H  0.14164230  0.77282532  0.25469188     0.08000
H2858       H  0.15911896  0.76064920  0.27836026     0.11700
H2859       H  0.13528237  0.75140608  0.36066775     0.11400
H2860       H  0.11785518  0.76344667  0.33661241     0.08000
C2861       C  0.08919148  0.82497538  0.05181171    -0.11100
C2862       C  0.08018813  0.81751372  0.03498387     0.06000
C2863       C  0.07119330  0.81044350  0.05278754    -0.09900
C2864       C  0.07099605  0.81110223  0.08671653    -0.11500
C2865       C  0.07983500  0.81879232  0.10347191    -0.01300
C2866       C  0.08904739  0.82557223  0.08568325    -0.10400
C2867       C  0.07999769  0.81737705  0.99896431     0.06100
H2868       H  0.06408538  0.80468470  0.04041373     0.08000
H2869       H  0.06377765  0.80578828  0.09978245     0.11400
H2870       H  0.09601584  0.83154390  0.09791387     0.11700
H2871       H  0.09633806  0.83038075  0.03872721     0.08000
C2872       C  0.08118583  0.82882678  0.98138957    -0.11100
C2873       C  0.08072583  0.82877761  0.94747252    -0.10400
C2874       C  0.07917397  0.81726419  0.93040937    -0.01300
C2875       C  0.07816752  0.80579280  0.94794375    -0.11500
C2876       C  0.07849566  0.80585868  0.98189714    -0.09900
H2877       H  0.08222660  0.83785947  0.99392153     0.08000
H2878       H  0.08153316  0.83776583  0.93460500     0.11700
H2879       H  0.07697128  0.79677782  0.93542555     0.11400
H2880       H  0.07767496  0.79688892  0.99483451     0.08000
C2881       C  0.11918156  0.86875495  0.24636026    -0.11100
C2882       C  0.11769184  0.87907659  0.22484237     0.06000
C2883       C  0.10651918  0.87988031  0.20586491    -0.09900
C2884       C  0.09740169  0.87015271  0.20678596    -0.11500
C2885       C  0.09928602  0.85939791  0.22665300    -0.01300
C2886       C  0.11005735  0.85897893  0.24722632    -0.10400
C2887       C  0.12824070  0.88830496  0.21978712     0.06100
H2888       H  0.10505913  0.88784130  0.18943960     0.08000
H2889       H  0.08916347  0.87078091  0.19081022     0.11400
H2890       H  0.11177502  0.85078754  0.26273020     0.11700
H2891       H  0.12773969  0.86788289  0.26113508     0.08000
C2892       C  0.13485379  0.89374816  0.24613183    -0.11100
C2893       C  0.14511410  0.90208012  0.24076469    -0.10400
C2894       C  0.14901859  0.90495562  0.20897563    -0.01300
C2895       C  0.14236611  0.89951400  0.18272568    -0.11500
C2896       C  0.13207728  0.89132101  0.18807152    -0.09900
H2897       H  0.13206479  0.89157207  0.27080653     0.08000
H2898       H  0.15010001  0.90611909  0.26144445     0.11700
H2899       H  0.14518027  0.90150101  0.15796356     0.11400
H2900       H  0.12729082  0.88708779  0.16733298     0.08000
C2901       C  0.91713265  0.81600752  0.05943147    -0.11100
C2902       C  0.92839383  0.81815517  0.04167476     0.06000
C2903       C  0.93957221  0.82164614  0.05863695    -0.09900
C2904       C  0.93943918  0.82323822  0.09232150    -0.11500
C2905       C  0.92813189  0.82136258  0.10995936    -0.01300
C2906       C  0.91699991  0.81761511  0.09320276    -0.10400
C2907       C  0.92839268  0.81740653  0.00553284     0.06100
H2908       H  0.94846372  0.82316848  0.04583608     0.08000
H2909       H  0.94819551  0.82604074  0.10453360     0.11400
H2910       H  0.90814683  0.81605188  0.10615343     0.11700
H2911       H  0.90832526  0.81344100  0.04713376     0.08000
C2912       C  0.92138442  0.80796170  0.98884443    -0.11100
C2913       C  0.92112979  0.80770553  0.95478344    -0.10400
C2914       C  0.92781542  0.81693436  0.93678921    -0.01300
C2915       C  0.93494167  0.82622750  0.95348751    -0.11500
C2916       C  0.93522923  0.82646145  0.98735097    -0.09900
H2917       H  0.91611694  0.80076677  0.00211190     0.08000
H2918       H  0.91554019  0.80043449  0.94256086     0.11700
H2919       H  0.94017720  0.83348775  0.94035207     0.11400
H2920       H  0.94055332  0.83399105  0.99929890     0.08000
C2921       C  0.86948498  0.89066832  0.26837763    -0.11100
C2922       C  0.87992936  0.89308018  0.24784404     0.06000
C2923       C  0.87977881  0.90423432  0.22876517    -0.09900
C2924       C  0.86901594  0.91219139  0.22822156    -0.11500
C2925       C  0.85820822  0.90921893  0.24692395    -0.01300
C2926       C  0.85875789  0.89867388  0.26798454    -0.10400
C2927       C  0.89014402  0.88328394  0.24365484     0.06100
H2928       H  0.88777925  0.90653386  0.21322594     0.08000
H2929       H  0.86892137  0.92032723  0.21195927     0.11400
H2930       H  0.85057427  0.89612962  0.28264747     0.11700
H2931       H  0.86921224  0.88213218  0.28321004     0.08000
C2932       C  0.89448577  0.87587898  0.27002959    -0.11100
C2933       C  0.90278873  0.86556003  0.26508032    -0.10400
C2934       C  0.90693466  0.86243397  0.23366164    -0.01300
C2935       C  0.90305250  0.87015893  0.20752460    -0.11500
C2936       C  0.89475870  0.88044737  0.21244584    -0.09900
H2937       H  0.89125128  0.87789717  0.29442058     0.08000
H2938       H  0.90567441  0.85981530  0.28573785     0.11700
H2939       H  0.90607665  0.86799353  0.18303062     0.11400
H2940       H  0.89147963  0.88579250  0.19148276     0.08000
C2941       C  0.98855732  0.83778809  0.25097815    -0.11100
C2942       C  0.99554453  0.82638792  0.24728448     0.06000
C2943       C  0.98878444  0.81484682  0.24393276    -0.09900
C2944       C  0.97540578  0.81481744  0.24221748    -0.11500
C2945       C  0.96849616  0.82632578  0.24370252    -0.01300
C2946       C  0.97518706  0.83776108  0.24914562    -0.10400
C2947       C  0.00974459  0.82666666  0.24416513     0.06100
H2948       H  0.99383887  0.80590101  0.24085516     0.08000
H2949       H  0.97051443  0.80584255  0.23812470     0.11400
H2950       H  0.97012069  0.84676639  0.25075174     0.11700
H2951       H  0.99345243  0.84680367  0.25435924     0.08000
C2952       C  0.01566404  0.83644571  0.22626265    -0.11100
C2953       C  0.02887432  0.83635931  0.22119365    -0.10400
C2954       C  0.03651657  0.82646320  0.23375855    -0.01300
C2955       C  0.03067952  0.81677192  0.25209457    -0.11500
C2956       C  0.01743555  0.81687796  0.25727543    -0.09900
H2957       H  0.01002888  0.84398703  0.21523192     0.08000
H2958       H  0.03306469  0.84390914  0.20674970     0.11700
H2959       H  0.03632928  0.80902788  0.26213179     0.11400
H2960       H  0.01320560  0.80926270  0.27140570     0.08000
C2961       C  0.75944799  0.86723592  0.75754631    -0.11100
C2962       C  0.76039842  0.87881654  0.74059214     0.06000
C2963       C  0.75514109  0.87967300  0.70926856    -0.09900
C2964       C  0.74933987  0.86904289  0.69478345    -0.11500
C2965       C  0.74883051  0.85720411  0.71121428    -0.01300
C2966       C  0.75383870  0.85658347  0.74299208    -0.10400
C2967       C  0.76785036  0.88951162  0.75472670     0.06100
H2968       H  0.75571954  0.88853313  0.69575532     0.08000
H2969       H  0.74573880  0.87024076  0.67043839     0.11400
H2970       H  0.75372375  0.84766082  0.75632468     0.11700
H2971       H  0.76357998  0.86623953  0.78158238     0.08000
C2972       C  0.76641870  0.89280637  0.78754119    -0.11100
C2973       C  0.77485086  0.90140482  0.80226016    -0.10400
C2974       C  0.78495541  0.90678963  0.78452056    -0.01300
C2975       C  0.78591826  0.90409073  0.75121404    -0.11500
C2976       C  0.77740723  0.89555915  0.73642063    -0.09900
H2977       H  0.75904003  0.88837838  0.80208026     0.08000
H2978       H  0.77382258  0.90335242  0.82792968     0.11700
H2979       H  0.79360128  0.90810657  0.73692904     0.11400
H2980       H  0.77877308  0.89312036  0.71112929     0.08000
C2981       C  0.63436670  0.73891906  0.78516832    -0.11100
C2982       C  0.62364494  0.73525723  0.80331164     0.06000
C2983       C  0.62330833  0.73837108  0.83646385    -0.09900
C2984       C  0.63360514  0.74466321  0.85138423    -0.11500
C2985       C  0.64460343  0.74797583  0.83350736    -0.01300
C2986       C  0.64471506  0.74504922  0.80008743    -0.10400
C2987       C  0.61339507  0.72733333  0.78816654     0.06100
H2988       H  0.61515169  0.73569735  0.85107477     0.08000
H2989       H  0.63297356  0.74628729  0.87714747     0.11400
H2990       H  0.65307277  0.74714137  0.78559162     0.11700
H2991       H  0.63504258  0.73648142  0.75969155     0.08000
C2992       C  0.60898369  0.72991288  0.75651886    -0.11100
C2993       C  0.60039971  0.72161527  0.74104329    -0.10400
C2994       C  0.59607008  0.71052385  0.75682216    -0.01300
C2995       C  0.60006039  0.70822849  0.78893204    -0.11500
C2996       C  0.60861443  0.71653829  0.80442661    -0.09900
H2997       H  0.61237223  0.73822958  0.74349860     0.08000
H2998       H  0.59746249  0.72368218  0.71634103     0.11700
H2999       H  0.59694107  0.69974840  0.80170669     0.11400
H3000       H  0.61192962  0.71419474  0.82865831     0.08000
C3001       C  0.69868990  0.79371142  0.81808591    -0.11100
C3002       C  0.69867475  0.79262487  0.78401413     0.06000
C3003       C  0.69090958  0.78332484  0.76941075    -0.09900
C3004       C  0.68309593  0.77549153  0.78828787    -0.11500
C3005       C  0.68291816  0.77666279  0.82233449    -0.01300
C3006       C  0.69098703  0.78568950  0.83711334    -0.10400
C3007       C  0.70652099  0.80126030  0.76350816     0.06100
H3008       H  0.69070383  0.78227266  0.74325655     0.08000
H3009       H  0.67725565  0.76839748  0.77615588     0.11400
H3010       H  0.69113409  0.78671866  0.86326430     0.11700
H3011       H  0.70470729  0.80073005  0.82995348     0.08000
C3012       C  0.70614456  0.81451981  0.76815321    -0.11100
C3013       C  0.71330220  0.82268024  0.74836159    -0.10400
C3014       C  0.72130335  0.81778354  0.72379805    -0.01300
C3015       C  0.72140395  0.80447475  0.71889857    -0.11500
C3016       C  0.71408913  0.79633839  0.73838311    -0.09900
H3017       H  0.70013627  0.81859544  0.78683401     0.08000
H3018       H  0.71246763  0.83283848  0.75248504     0.11700
H3019       H  0.72729281  0.80016750  0.70054806     0.11400
H3020       H  0.71452444  0.78613466  0.73418676     0.08000
C3021       C  0.72478009  0.60541309  0.80626615    -0.11100
C3022       C  0.73079598  0.61501730  0.78786542     0.06000
C3023       C  0.72840645  0.61548337  0.75425153    -0.09900
C3024       C  0.72003785  0.60681998  0.73955665    -0.11500
C3025       C  0.71372322  0.59749891  0.75805574    -0.01300
C3026       C  0.71630562  0.59676723  0.79152565    -0.10400
C3027       C  0.73881071  0.62508948  0.80358714     0.06100
H3028       H  0.73263037  0.62286767  0.73934895     0.08000
H3029       H  0.71821358  0.60768953  0.71374457     0.11400
H3030       H  0.71163193  0.58964174  0.80638669     0.11700
H3031       H  0.72651401  0.60466167  0.83212919     0.08000
C3032       C  0.73529369  0.63032381  0.83363617    -0.11100
C3033       C  0.74168878  0.64098794  0.84611411    -0.10400
C3034       C  0.75174338  0.64683076  0.82891469    -0.01300
C3035       C  0.75580390  0.64101668  0.79986215    -0.11500
C3036       C  0.74941768  0.63031665  0.78744704    -0.09900
H3037       H  0.72714491  0.62663230  0.84675313     0.08000
H3038       H  0.73833519  0.64511833  0.86862659     0.11700
H3039       H  0.76358755  0.64477488  0.78575637     0.11400
H3040       H  0.75261875  0.62631186  0.76466050     0.08000
C3041       C  0.70989929  0.73040223  0.88710194    -0.11100
C3042       C  0.71100184  0.72092251  0.86320997     0.06000
C3043       C  0.70194939  0.72040310  0.83804189    -0.09900
C3044       C  0.69177105  0.72899124  0.83708807    -0.11500
C3045       C  0.69028577  0.73820717  0.86158745    -0.01300
C3046       C  0.69956752  0.73896599  0.88635950    -0.10400
C3047       C  0.72107014  0.71103707  0.86487644     0.06100
H3048       H  0.70272800  0.71324854  0.81916419     0.08000
H3049       H  0.68503445  0.72836286  0.81710982     0.11400
H3050       H  0.69865585  0.74588394  0.90566329     0.11700
H3051       H  0.71677430  0.73089660  0.90681922     0.08000
C3052       C  0.73409837  0.71422250  0.86393633    -0.11100
C3053       C  0.74339802  0.70459506  0.86141933    -0.10400
C3054       C  0.73979301  0.69164004  0.85996465    -0.01300
C3055       C  0.72672730  0.68859013  0.86310738    -0.11500
C3056       C  0.71750536  0.69815772  0.86512610    -0.09900
H3057       H  0.73702670  0.72414422  0.86382420     0.08000
H3058       H  0.75330773  0.70739372  0.85962804     0.11700
H3059       H  0.72349715  0.67878786  0.86383870     0.11400
H3060       H  0.70750239  0.69550280  0.86646473     0.08000
C3061       C  0.88688455  0.77530532  0.77222892    -0.11100
C3062       C  0.88436048  0.77740636  0.73898835     0.06000
C3063       C  0.89119174  0.78720359  0.72317594    -0.09900
C3064       C  0.89987917  0.79489822  0.74027903    -0.11500
C3065       C  0.90214684  0.79288829  0.77353798    -0.01300
C3066       C  0.89571279  0.78286511  0.78914737    -0.10400
C3067       C  0.87428752  0.76979844  0.72148223     0.06100
H3068       H  0.88985048  0.78900688  0.69752824     0.08000
H3069       H  0.90471944  0.80252463  0.72750314     0.11400
H3070       H  0.89718839  0.78110578  0.81480674     0.11700
H3071       H  0.88173202  0.76810042  0.78569459     0.08000
C3072       C  0.87126867  0.75724698  0.73113995    -0.11100
C3073       C  0.86101424  0.75062682  0.71698790    -0.10400
C3074       C  0.85346959  0.75630522  0.69242762    -0.01300
C3075       C  0.85725077  0.76838316  0.68082136    -0.11500
C3076       C  0.86725361  0.77514237  0.69556856    -0.09900
H3077       H  0.87678514  0.75247342  0.74985088     0.08000
H3078       H  0.85918587  0.74106020  0.72551322     0.11700
H3079       H  0.85197784  0.77293640  0.66128053     0.11400
H3080       H  0.86910451  0.78475917  0.68723397     0.08000
C3081       C  0.79899042  0.78401731  0.64177049    -0.11100
C3082       C  0.78804501  0.78249012  0.66116268     0.06000
C3083       C  0.78683762  0.77119854  0.67960581    -0.09900
C3084       C  0.79656826  0.76199655  0.67968092    -0.11500
C3085       C  0.80770043  0.76394738  0.66162513    -0.01300
C3086       C  0.80876220  0.77491266  0.64228346    -0.10400
C3087       C  0.77838444  0.79295119  0.66377727     0.06100
H3088       H  0.77868887  0.76973914  0.69524421     0.08000
H3089       H  0.79571692  0.75372613  0.69536142     0.11400
H3090       H  0.81732508  0.77655884  0.62818156     0.11700
H3091       H  0.80015431  0.79238844  0.62659935     0.08000
C3092       C  0.78220202  0.80582589  0.66245260    -0.11100
C3093       C  0.77333961  0.81566396  0.66680976    -0.10400
C3094       C  0.76040706  0.81294955  0.67318662    -0.01300
C3095       C  0.75652982  0.80010206  0.67362878    -0.11500
C3096       C  0.76537767  0.79023980  0.66894347    -0.09900
H3097       H  0.79213161  0.80837134  0.65891533     0.08000
H3098       H  0.77671120  0.82540773  0.66525596     0.11700
H3099       H  0.74672735  0.79754547  0.67825672     0.11400
H3100       H  0.76200005  0.78047086  0.66950204     0.08000
C3101       C  0.81578216  0.70782045  0.74625722    -0.11100
C3102       C  0.80236802  0.70867677  0.74748570     0.06000
C3103       C  0.79615237  0.71701906  0.72564937    -0.09900
C3104       C  0.80318318  0.72477461  0.70446643    -0.11500
C3105       C  0.81662069  0.72447817  0.70464490    -0.01300
C3106       C  0.82279383  0.71555447  0.72506666    -0.10400
C3107       C  0.79490187  0.70107498  0.77165617     0.06100
H3108       H  0.78581897  0.71766704  0.72515946     0.08000
H3109       H  0.79803687  0.73135297  0.68889313     0.11400
H3110       H  0.83311624  0.71473360  0.72530500     0.11700
H3111       H  0.82094164  0.70149161  0.76251005     0.08000
C3112       C  0.79853141  0.68852210  0.77989207    -0.11100
C3113       C  0.79113650  0.68123294  0.80129023    -0.10400
C3114       C  0.77998576  0.68632438  0.81520737    -0.01300
C3115       C  0.77662789  0.69899903  0.80810416    -0.11500
C3116       C  0.78397337  0.70628363  0.78656557    -0.09900
H3117       H  0.80682803  0.68413736  0.76889058     0.08000
H3118       H  0.79394677  0.67146633  0.80633422     0.11700
H3119       H  0.76799306  0.70310076  0.81799173     0.11400
H3120       H  0.78101187  0.71598707  0.78137342     0.08000
C3121       C  0.74321175  0.63734910  0.24452278    -0.11100
C3122       C  0.74091404  0.62597216  0.22743481     0.06000
C3123       C  0.74512218  0.62513867  0.19509948    -0.09900
C3124       C  0.75117491  0.63552866  0.17999819    -0.11500
C3125       C  0.75310926  0.64710794  0.19683291    -0.01300
C3126       C  0.74912570  0.64772858  0.22944291    -0.10400
C3127       C  0.73336323  0.61547296  0.24278276     0.06100
H3128       H  0.74358496  0.61647848  0.18127512     0.08000
H3129       H  0.75385432  0.63444931  0.15491626     0.11400
H3130       H  0.75024288  0.65649646  0.24310384     0.11700
H3131       H  0.73991962  0.63846829  0.26923448     0.08000
C3132       C  0.73484889  0.61256894  0.27597267    -0.11100
C3133       C  0.72665976  0.60387524  0.29127615    -0.10400
C3134       C  0.71679196  0.59783649  0.27377102    -0.01300
C3135       C  0.71569473  0.60024773  0.24030141    -0.11500
C3136       C  0.72387276  0.60895643  0.22499727    -0.09900
H3137       H  0.74218677  0.61723477  0.29031432     0.08000
H3138       H  0.72781659  0.60217885  0.31706420     0.11700
H3139       H  0.70817920  0.59578085  0.22613992     0.11400
H3140       H  0.72234883  0.61103235  0.19952039     0.08000
C3141       C  0.76695617  0.68432117  0.97462577    -0.11100
C3142       C  0.77148026  0.67378619  0.99281876     0.06000
C3143       C  0.77534030  0.66282882  0.97555611    -0.09900
C3144       C  0.77415115  0.66220277  0.94174194    -0.11500
C3145       C  0.76876789  0.67236712  0.92396183    -0.01300
C3146       C  0.76549392  0.68357031  0.94078717    -0.10400
C3147       C  0.77137252  0.67384539  0.02942261     0.06100
H3148       H  0.77877237  0.65440604  0.98805494     0.08000
H3149       H  0.77710191  0.65351678  0.92967113     0.11400
H3150       H  0.76126949  0.69160823  0.92814063     0.11700
H3151       H  0.76425348  0.69313008  0.98644773     0.08000
C3152       C  0.76250191  0.68140792  0.04659961    -0.11100
C3153       C  0.76161027  0.68068042  0.08047145    -0.10400
C3154       C  0.76927995  0.67213193  0.09815739    -0.01300
C3155       C  0.77829910  0.66472784  0.08150811    -0.11500
C3156       C  0.77950950  0.66574484  0.04768299    -0.09900
H3157       H  0.75580650  0.68755273  0.03398400     0.08000
H3158       H  0.75443721  0.68635685  0.09272636     0.11700
H3159       H  0.78435888  0.65809474  0.09469249     0.11400
H3160       H  0.78675361  0.66001623  0.03598119     0.08000
C3161       C  0.86946815  0.76484850  0.28010073    -0.11100
C3162       C  0.87983005  0.76857310  0.29961521     0.06000
C3163       C  0.88035141  0.76436046  0.33198217    -0.09900
C3164       C  0.87040578  0.75703436  0.34502194    -0.11500
C3165       C  0.85963319  0.75383810  0.32593944    -0.01300
C3166       C  0.85948995  0.75768837  0.29312531    -0.10400
C3167       C  0.88940689  0.77770744  0.28679825     0.06100
H3168       H  0.88829626  0.76706100  0.34749342     0.08000
H3169       H  0.87100457  0.75460943  0.37042038     0.11400
H3170       H  0.85126779  0.75570279  0.27784471     0.11700
H3171       H  0.86870522  0.76809726  0.25519368     0.08000
C3172       C  0.89430233  0.77627829  0.25530754    -0.11100
C3173       C  0.90238389  0.78554501  0.24213264    -0.10400
C3174       C  0.90568828  0.79646227  0.26012665    -0.01300
C3175       C  0.90099198  0.79777812  0.29184680    -0.11500
C3176       C  0.89295380  0.78847863  0.30507332    -0.09900
H3177       H  0.89175698  0.76804586  0.24074898     0.08000
H3178       H  0.90587077  0.78426317  0.21763913     0.11700
H3179       H  0.90332330  0.80612085  0.30622599     0.11400
H3180       H  0.88914782  0.78993219  0.32919386     0.08000
C3181       C  0.84213391  0.73133528  0.47565855    -0.11100
C3182       C  0.83047516  0.73456399  0.49075094     0.06000
C3183       C  0.82017379  0.73812307  0.47030680    -0.09900
C3184       C  0.82171451  0.73913057  0.43649829    -0.11500
C3185       C  0.83351839  0.73633515  0.42177694    -0.01300
C3186       C  0.84355379  0.73201765  0.44189541    -0.10400
C3187       C  0.82940471  0.73490002  0.52739611     0.06100
H3188       H  0.81089184  0.74036912  0.48025518     0.08000
H3189       H  0.81372786  0.74259942  0.42220545     0.11400
H3190       H  0.85272948  0.72946055  0.43174779     0.11700
H3191       H  0.85047376  0.72872510  0.48977691     0.08000
C3192       C  0.83791182  0.72786115  0.54735756    -0.11100
C3193       C  0.83811886  0.72951889  0.58114934    -0.10400
C3194       C  0.82948965  0.73783990  0.59627421    -0.01300
C3195       C  0.82038374  0.74419595  0.57701627    -0.11500
C3196       C  0.82043687  0.74289503  0.54306274    -0.09900
H3197       H  0.84464193  0.72117198  0.53706951     0.08000
H3198       H  0.84516213  0.72440354  0.59552238     0.11700
H3199       H  0.81369184  0.75077275  0.58807988     0.11400
H3200       H  0.81378521  0.74867615  0.52925735     0.08000
C3201       C  0.81332028  0.71969891  0.25506932    -0.11100
C3202       C  0.80598262  0.70977537  0.26834823     0.06000
C3203       C  0.80633706  0.70787487  0.30222499    -0.09900
C3204       C  0.81382009  0.71576926  0.32232123    -0.11500
C3205       C  0.82133635  0.72550767  0.30886117    -0.01300
C3206       C  0.82095251  0.72740349  0.27502036    -0.10400
C3207       C  0.79800461  0.70147072  0.24687957     0.06100
H3208       H  0.80069064  0.70037142  0.31319502     0.08000
H3209       H  0.81390910  0.71412947  0.34828065     0.11400
H3210       H  0.82647642  0.73497787  0.26394782     0.11700
H3211       H  0.81329993  0.72138535  0.22912542     0.08000
C3212       C  0.79030260  0.70677165  0.22223205    -0.11100
C3213       C  0.78251092  0.69898082  0.20272935    -0.10400
C3214       C  0.78221976  0.68563909  0.20714905    -0.01300
C3215       C  0.79045744  0.68035378  0.23094026    -0.11500
C3216       C  0.79809646  0.68815517  0.25070625    -0.09900
H3217       H  0.79004267  0.71701586  0.21859402     0.08000
H3218       H  0.77652857  0.70357252  0.18482988     0.11700
H3219       H  0.79107227  0.67015141  0.23461619     0.11400
H3220       H  0.80418009  0.68374714  0.26890470     0.08000
C3221       C  0.61619028  0.72712928  0.27593920    -0.11100
C3222       C  0.61783892  0.72771787  0.24204661     0.06000
C3223       C  0.60984739  0.72008043  0.22236649    -0.09900
C3224       C  0.60095160  0.71168904  0.23618831    -0.11500
C3225       C  0.59963924  0.71086046  0.27003490    -0.01300
C3226       C  0.60716334  0.71888007  0.28970121    -0.10400
C3227       C  0.62834372  0.73561204  0.22754340     0.06100
H3228       H  0.61054543  0.72044857  0.19618429     0.08000
H3229       H  0.59522296  0.70570879  0.22036452     0.11400
H3230       H  0.60643074  0.71842887  0.31589335     0.11700
H3231       H  0.62222355  0.73265764  0.29206094     0.08000
C3232       C  0.63245252  0.74708021  0.24212200    -0.11100
C3233       C  0.64306822  0.75378252  0.23014540    -0.10400
C3234       C  0.64988767  0.74923507  0.20302988    -0.01300
C3235       C  0.64526259  0.73817161  0.18745942    -0.11500
C3236       C  0.63481513  0.73139741  0.19967952    -0.09900
H3237       H  0.62751554  0.75088013  0.26303536     0.08000
H3238       H  0.64580751  0.76242137  0.24256935     0.11700
H3239       H  0.65012162  0.73444228  0.16631618     0.11400
H3240       H  0.63214677  0.72257008  0.18781723     0.08000
C3241       C  0.66416979  0.77537436  0.05680258    -0.11100
C3242       C  0.67346854  0.76900713  0.03806961     0.06000
C3243       C  0.68327863  0.76238461  0.05469700    -0.09900
C3244       C  0.68336008  0.76159446  0.08873068    -0.11500
C3245       C  0.67353392  0.76720863  0.10698435    -0.01300
C3246       C  0.66410215  0.77432657  0.09070075    -0.10400
C3247       C  0.67232229  0.76845048  0.00166184     0.06100
H3248       H  0.69055911  0.75722985  0.04148969     0.08000
H3249       H  0.69068995  0.75593417  0.10062872     0.11400
H3250       H  0.65650211  0.77888424  0.10422462     0.11700
H3251       H  0.65671060  0.78097410  0.04531956     0.08000
C3252       C  0.66021335  0.76867254  0.98661891    -0.11100
C3253       C  0.65888617  0.76724464  0.95302588    -0.10400
C3254       C  0.66958635  0.76508703  0.93297080    -0.01300
C3255       C  0.68176571  0.76535227  0.94788139    -0.11500
C3256       C  0.68311277  0.76706077  0.98159103    -0.09900
H3257       H  0.65158071  0.76954870  0.00081777     0.08000
H3258       H  0.64929707  0.76768314  0.94327590     0.11700
H3259       H  0.69035972  0.76393708  0.93397659     0.11400
H3260       H  0.69265552  0.76714027  0.99189232     0.08000
C3261       C  0.70337059  0.72222660  0.14344575    -0.11100
C3262       C  0.71466013  0.72282580  0.16212049     0.06000
C3263       C  0.71626826  0.73307317  0.18393008    -0.09900
C3264       C  0.70658649  0.74220730  0.18779524    -0.11500
C3265       C  0.69514965  0.74114484  0.17015034    -0.01300
C3266       C  0.69367520  0.73123210  0.14765679    -0.10400
C3267       C  0.72422221  0.71230107  0.16052740     0.06100
H3268       H  0.72476356  0.73373853  0.19897607     0.08000
H3269       H  0.70779453  0.74976850  0.20546934     0.11400
H3270       H  0.68490178  0.73036464  0.13370871     0.11700
H3271       H  0.70192088  0.71464770  0.12595223     0.08000
C3272       C  0.72011334  0.69957359  0.15766261    -0.11100
C3273       C  0.72889126  0.68953519  0.15852621    -0.10400
C3274       C  0.74204161  0.69189274  0.16282270    -0.01300
C3275       C  0.74621156  0.70464448  0.16427669    -0.11500
C3276       C  0.73740827  0.71473587  0.16322399    -0.09900
H3277       H  0.71003633  0.69729643  0.15575807     0.08000
H3278       H  0.72527746  0.67990010  0.15615069     0.11700
H3279       H  0.75620486  0.70690591  0.16728367     0.11400
H3280       H  0.74091580  0.72444230  0.16489128     0.08000
C3281       C  0.76311810  0.86075040  0.29407793    -0.11100
C3282       C  0.77121403  0.86905451  0.31159184     0.06000
C3283       C  0.77199873  0.86761181  0.34548936    -0.09900
C3284       C  0.76479226  0.85831558  0.36147043    -0.11500
C3285       C  0.75661223  0.85012120  0.34406712    -0.01300
C3286       C  0.75593772  0.85134752  0.31015007    -0.10400
C3287       C  0.77892414  0.87913274  0.29491298     0.06100
H3288       H  0.77835508  0.87356495  0.35974321     0.08000
H3289       H  0.76579552  0.85740819  0.38754830     0.11400
H3290       H  0.74968333  0.84520029  0.29613338     0.11700
H3291       H  0.76218317  0.86164153  0.26799267     0.08000
C3292       C  0.78475325  0.87677626  0.26477114    -0.11100
C3293       C  0.79248909  0.88606654  0.25008651    -0.10400
C3294       C  0.79461139  0.89793525  0.26519417    -0.01300
C3295       C  0.78861265  0.90037673  0.29499482    -0.11500
C3296       C  0.78084817  0.89113108  0.30958760    -0.09900
H3297       H  0.78361660  0.86762203  0.25290340     0.08000
H3298       H  0.79700443  0.88386232  0.22715989     0.11700
H3299       H  0.78996931  0.90944064  0.30717747     0.11400
H3300       H  0.77633168  0.89340459  0.33246074     0.08000
C3301       C  0.72483747  0.82135065  0.49109215    -0.11100
C3302       C  0.72758001  0.83216061  0.51002124     0.06000
C3303       C  0.73207475  0.84320515  0.49447438    -0.09900
C3304       C  0.73453858  0.84323871  0.46115248    -0.11500
C3305       C  0.73256178  0.83217026  0.44225210    -0.01300
C3306       C  0.72720468  0.82139575  0.45764810    -0.10400
C3307       C  0.72705162  0.83167488  0.54609896     0.06100
H3308       H  0.73441433  0.85165593  0.50843637     0.08000
H3309       H  0.73861045  0.85182937  0.45126097     0.11400
H3310       H  0.72554796  0.81270623  0.44401524     0.11700
H3311       H  0.72124531  0.81272383  0.50233659     0.08000
C3312       C  0.73233525  0.82124484  0.56302217    -0.11100
C3313       C  0.73398817  0.82172956  0.59674642    -0.10400
C3314       C  0.73028397  0.83261216  0.61437007    -0.01300
C3315       C  0.72413992  0.84264219  0.59764658    -0.11500
C3316       C  0.72261704  0.84221038  0.56391159    -0.09900
H3317       H  0.73597026  0.81304523  0.54996639     0.08000
H3318       H  0.73892600  0.81389887  0.60854332     0.11700
H3319       H  0.72086799  0.85104210  0.61047299     0.11400
H3320       H  0.71831495  0.85030151  0.55159897     0.08000
C3321       C  0.77547301  0.79353701  0.33922957    -0.11100
C3322       C  0.78400290  0.79100201  0.36485478     0.06000
C3323       C  0.78266036  0.79766808  0.39413372    -0.09900
C3324       C  0.77289710  0.80660443  0.39791735    -0.11500
C3325       C  0.76418551  0.80909266  0.37250554    -0.01300
C3326       C  0.76573828  0.80260191  0.34289985    -0.10400
C3327       C  0.79452987  0.78169345  0.36108222     0.06100
H3328       H  0.78914253  0.79589727  0.41424622     0.08000
H3329       H  0.77232792  0.81166352  0.42074893     0.11400
H3330       H  0.75940854  0.80435902  0.32259709     0.11700
H3331       H  0.77646107  0.78863751  0.31622977     0.08000
C3332       C  0.79224712  0.76943870  0.34839886    -0.11100
C3333       C  0.80225165  0.76059181  0.34594501    -0.10400
C3334       C  0.81467938  0.76398659  0.35557663    -0.01300
C3335       C  0.81693568  0.77625358  0.36811361    -0.11500
C3336       C  0.80695748  0.78499818  0.37093851    -0.09900
H3337       H  0.78270666  0.76666985  0.34084427     0.08000
H3338       H  0.80034089  0.75121103  0.33598121     0.11700
H3339       H  0.82642764  0.77905480  0.37599718     0.11400
H3340       H  0.80896809  0.79440824  0.38060808     0.08000
C3341       C  0.70693775  0.81647501  0.28988998    -0.11100
C3342       C  0.71084530  0.80447535  0.27785106     0.06000
C3343       C  0.72222028  0.79911284  0.29033794    -0.09900
C3344       C  0.72939296  0.80547214  0.31409546    -0.11500
C3345       C  0.72539450  0.81731349  0.32621928    -0.01300
C3346       C  0.71407838  0.82275956  0.31402725    -0.10400
C3347       C  0.70280922  0.79716755  0.25397213     0.06100
H3348       H  0.72539697  0.78975827  0.28263018     0.08000
H3349       H  0.73781003  0.80086628  0.32396543     0.11400
H3350       H  0.71079789  0.83189146  0.32312278     0.11700
H3351       H  0.69834569  0.82102593  0.28073979     0.08000
C3352       C  0.68936727  0.79776482  0.25506362    -0.11100
C3353       C  0.68184005  0.78982969  0.23536612    -0.10400
C3354       C  0.68749628  0.78089598  0.21425743    -0.01300
C3355       C  0.70091735  0.78080617  0.21181184    -0.11500
C3356       C  0.70845125  0.78886077  0.23124201    -0.09900
H3357       H  0.68458974  0.80396804  0.27215934     0.08000
H3358       H  0.67154630  0.79051517  0.23738208     0.11700
H3359       H  0.70571961  0.77413286  0.19598637     0.11400
H3360       H  0.71874954  0.78833755  0.22894215     0.08000
loop_ 
_geom_bond_atom_site_label_1 
_geom_bond_atom_site_label_2 
_geom_bond_distance 
_geom_bond_site_symmetry_2 
_ccdc_geom_bond_type 
C1            C2   1.540       .  S
C1            C7   1.544       .  S
C1            C5   1.535       .  S
C1         C3305   1.534       .  S
C2            H9   1.086       .  S
C2            C3   1.369       .  D
C3            C4   1.544       .  S
C3         C3345   1.485       .  S
C4            C8   1.543       .  S
C4            C6   1.541       .  S
C4           H10   1.109       .  S
C5           H11   1.086       .  S
C5            C6   1.365       .  D
C6         C3325   1.490       .  S
C7           H12   1.081       .  S
C7            C8   1.368       .  D
C8         C3285   1.492       .  S
C13          C14   1.537       .  S
C13          C19   1.544       .  S
C13          C17   1.538       .  S
C13        C3234   1.537       .  S
C14          H21   1.086       .  S
C14          C15   1.369       .  D
C15          C16   1.544       .  S
C15        C3245   1.490       .  S
C16          C20   1.551       .  S
C16          C18   1.532       .  S
C16          H22   1.109       .  S
C17          H23   1.087       .  S
C17          C18   1.361       .  D
C18        C3265   1.472       .  S
C19          H24   1.080       .  S
C19          C20   1.375       .  D
C20        C3354   1.502       .  S
C25          C26   1.533       .  S
C25          C31   1.543       .  S
C25          C29   1.531       .  S
C25        C3165   1.528       .  S
C26          H33   1.086       .  S
C26          C27   1.365       .  D
C27          C28   1.548       .  S
C27        C3205   1.492       .  S
C28          C32   1.554       .  S
C28          C30   1.538       .  S
C28          H34   1.109       .  S
C29          H35   1.087       .  S
C29          C30   1.361       .  D
C30        C3334   1.477       .  S
C31          H36   1.080       .  S
C31          C32   1.376       .  D
C32        C3185   1.507       .  S
C37          C38   1.534       .  S
C37          C43   1.545       .  S
C37          C41   1.534       .  S
C37        C3125   1.536       .  S
C38          H45   1.084       .  S
C38          C39   1.372       .  D
C39          C40   1.556       .  S
C39        C3214   1.509       .  S
C40          C44   1.544       .  S
C40          C42   1.541       .  S
C40          H46   1.107       .  S
C41          H47   1.085       .  S
C41          C42   1.366       .  D
C42        C3274   1.493       .  S
C43          H48   1.082       .  S
C43          C44   1.369       .  D
C44        C3154   1.488       .  S
C49          C50   1.537       .  S
C49          C55   1.540       .  S
C49          C53   1.538       .  S
C49        C3074   1.536       .  S
C50          H57   1.086       .  S
C50          C51   1.370       .  D
C51          C52   1.547       .  S
C51        C3194   1.491       .  S
C52          C56   1.553       .  S
C52          C54   1.536       .  S
C52          H58   1.110       .  S
C53          H59   1.087       .  S
C53          C54   1.360       .  D
C54        C3085   1.475       .  S
C55          H60   1.081       .  S
C55          C56   1.371       .  D
C56        C3105   1.500       .  S
C61          C62   1.534       .  S
C61          C67   1.538       .  S
C61          C65   1.534       .  S
C61        C3034   1.533       .  S
C62          H69   1.085       .  S
C62          C63   1.372       .  D
C63          C64   1.550       .  S
C63        C3145   1.499       .  S
C64          C68   1.549       .  S
C64          C66   1.543       .  S
C64          H70   1.107       .  S
C65          H71   1.085       .  S
C65          C66   1.368       .  D
C66        C3054   1.496       .  S
C67          H72   1.081       .  S
C67          C68   1.366       .  D
C68        C3114   1.490       .  S
C73          C74   1.533       .  S
C73          C79   1.539       .  S
C73          C77   1.532       .  S
C73        C2985   1.535       .  S
C74          H81   1.086       .  S
C74          C75   1.366       .  D
C75          C76   1.546       .  S
C75        C3005   1.491       .  S
C76          C80   1.557       .  S
C76          C78   1.541       .  S
C76          H82   1.106       .  S
C77          H83   1.086       .  S
C77          C78   1.366       .  D
C78        C3045   1.487       .  S
C79          H84   1.076       .  S
C79          C80   1.377       .  D
C80        C3254   1.514       .  S
C85          C86   1.532       .  S
C85          C91   1.540       .  S
C85          C89   1.535       .  S
C85        C2965   1.531       .  S
C86          H93   1.084       .  S
C86          C87   1.370       .  D
C87          C88   1.553       .  S
C87        C3014   1.504       .  S
C88          C92   1.545       .  S
C88          C90   1.544       .  S
C88          H94   1.105       .  S
C89          H95   1.085       .  S
C89          C90   1.368       .  D
C90        C3094   1.495       .  S
C91          H96   1.080       .  S
C91          C92   1.369       .  D
C92        C3314   1.494       .  S
O97         C100   1.267       .  A
O97        Cd102   2.481       .  S
C98         O107   1.264       .  A
C98         O103   1.264       .  A
C98        C3174   1.479       .  S
O99         C105   1.265       .  A
O99        Cd102   2.481       .  S
C100        O108   1.266       .  A
C100       C2905   1.483       .  S
C101        O106   1.264       .  A
C101        O104   1.265       .  A
C101       C2934   1.481       .  S
Cd102       O109   2.476       .  S
Cd102       O108   2.469       .  S
Cd102       O107   2.475       .  S
Cd102       O103   2.467       .  S
Cd102       O106   2.482       .  S
Cd102       O104   2.473       .  S
C105        O109   1.264       .  A
C105       C2945   1.482       .  S
O110        C113   1.266       .  A
O110       Cd115   2.484       .  S
C111        O120   1.267       .  A
C111        O116   1.266       .  A
C111       C2845   1.479       .  S
O112        C118   1.264       .  A
O112       Cd115   2.462       .  S
C113        O121   1.264       .  A
C113       C2865   1.479       .  S
C114        O119   1.264       .  A
C114        O117   1.264       .  A
C114       C2954   1.482       .  S
Cd115       O122   2.481       .  S
Cd115       O121   2.455       .  S
Cd115       O120   2.472       .  S
Cd115       O116   2.450       .  S
Cd115       O119   2.474       .  S
Cd115       O117   2.493       .  S
C118        O122   1.264       .  A
C118       C2885   1.479       .  S
O123        C126   1.265       .  A
O123       Cd128   2.485       .  S
C124        O133   1.266       .  A
C124        O129   1.268       .  A
C124       C2805   1.481       .  S
O125        C131   1.262       .  A
O125       Cd128   2.453       .  S
C126        O134   1.265       .  A
C126       C2794   1.483       .  S
C127        O132   1.266       .  A
C127        O130   1.265       .  A
C127       C2825   1.483       .  S
Cd128       O135   2.493       .  S
Cd128       O134   2.475       .  S
Cd128       O133   2.465       .  S
Cd128       O129   2.471       .  S
Cd128       O132   2.491       .  S
Cd128       O130   2.463       .  S
C131        O135   1.265       .  A
C131       C2894   1.478       .  S
O136        C139   1.263       .  A
O136       Cd141   2.474       .  S
C137        O146   1.267       .  A
C137        O142   1.266       .  A
C137       C2725   1.484       .  S
O138        C144   1.265       .  A
O138       Cd141   2.455       .  S
C139        O147   1.264       .  A
C139       C2754   1.482       .  S
C140        O145   1.264       .  A
C140        O143   1.265       .  A
C140       C2834   1.484       .  S
Cd141       O148   2.498       .  S
Cd141       O147   2.490       .  S
Cd141       O146   2.485       .  S
Cd141       O142   2.473       .  S
Cd141       O145   2.492       .  S
Cd141       O143   2.490       .  S
C144        O148   1.267       .  A
C144       C2774   1.482       .  S
O149        C152   1.267       .  A
O149       Cd154   2.482       .  S
C150        O159   1.267       .  A
C150        O155   1.265       .  A
C150       C2645   1.482       .  S
O151        C157   1.268       .  A
O151       Cd154   2.505       .  S
C152        O160   1.264       .  A
C152       C2665   1.477       .  S
C153        O158   1.265       .  A
C153        O156   1.265       .  A
C153       C2714   1.487       .  S
Cd154       O161   2.440       .  S
Cd154       O160   2.438       .  S
Cd154       O159   2.492       .  S
Cd154       O155   2.455       .  S
Cd154       O158   2.497       .  S
Cd154       O156   2.484       .  S
C157        O161   1.263       .  A
C157       C2685   1.481       .  S
O162        C165   1.267       .  A
O162       Cd167   2.480       .  S
C163        O172   1.264       .  A
C163        O168   1.264       .  A
C163       C2634   1.481       .  S
O164        C170   1.267       .  A
O164       Cd167   2.496       .  S
C165        O173   1.267       .  A
C165       C2605   1.487       .  S
C166        O171   1.265       .  A
C166        O169   1.264       .  A
C166       C2705   1.488       .  S
Cd167       O174   2.457       .  S
Cd167       O173   2.488       .  S
Cd167       O172   2.470       .  S
Cd167       O168   2.489       .  S
Cd167       O171   2.513       .  S
Cd167       O169   2.479       .  S
C170        O174   1.265       .  A
C170       C2765   1.482       .  S
O175        C178   1.266       .  A
O175       Cd180   2.495       .  S
C176        O185   1.267       .  A
C176        O181   1.266       .  A
C176       C3294   1.489       .  S
O177        C183   1.267       .  A
O177       Cd180   2.484       .  S
C178        O186   1.262       .  A
C178       C2574   1.481       .  S
C179        O184   1.264       .  A
C179        O182   1.265       .  A
C179       C2585   1.486       .  S
Cd180       O187   2.464       .  S
Cd180       O186   2.459       .  S
Cd180       O185   2.493       .  S
Cd180       O181   2.494       .  S
Cd180       O184   2.488       .  S
Cd180       O182   2.495       .  S
C183        O187   1.264       .  A
C183       C2925   1.481       .  S
O188        C191   1.264       .  A
O188       Cd193   2.465       .  S
C189        O198   1.267       .  A
C189        O194   1.267       .  A
C189       C2545   1.477       .  S
O190        C196   1.270       .  A
O190       Cd193   2.527       .  S
C191        O199   1.267       .  A
C191       C2534   1.482       .  S
C192        O197   1.268       .  A
C192        O195   1.264       .  A
C192       C2594   1.487       .  S
Cd193       O200   2.428       .  S
Cd193       O199   2.481       .  S
Cd193       O198   2.447       .  S
Cd193       O194   2.465       .  S
Cd193       O197   2.511       .  S
Cd193       O195   2.465       .  S
C196        O200   1.263       .  A
C196       C2694   1.484       .  S
O201        C204   1.265       .  A
O201       Cd206   2.453       .  S
C202        O211   1.265       .  A
C202        O207   1.265       .  A
C202       C2565   1.481       .  S
O203        C209   1.264       .  A
O203       Cd206   2.445       .  S
C204        O212   1.267       .  A
C204       C2974   1.479       .  S
C205        O210   1.266       .  A
C205        O208   1.264       .  A
C205       C2505   1.481       .  S
Cd206       O213   2.489       .  S
Cd206       O212   2.475       .  S
Cd206       O211   2.465       .  S
Cd206       O207   2.480       .  S
Cd206       O210   2.494       .  S
Cd206       O208   2.453       .  S
C209        O213   1.267       .  A
C209       C2485   1.480       .  S
O214        C217   1.266       .  A
O214       Cd219   2.482       .  S
C215        O224   1.266       .  A
C215        O220   1.266       .  A
C215       C2454   1.476       .  S
O216        C222   1.267       .  A
O216       Cd219   2.518       .  S
C217        O225   1.264       .  A
C217       C2554   1.477       .  S
C218        O223   1.264       .  A
C218        O221   1.262       .  A
C218       C2514   1.480       .  S
Cd219       O226   2.435       .  S
Cd219       O225   2.442       .  S
Cd219       O224   2.456       .  S
Cd219       O220   2.456       .  S
Cd219       O223   2.487       .  S
Cd219       O221   2.467       .  S
C222        O226   1.262       .  A
C222       C2474   1.482       .  S
O227        C230   1.266       .  A
O227       Cd232   2.458       .  S
C228        O237   1.264       .  A
C228        O233   1.267       .  A
C228       C2814   1.481       .  S
O229        C235   1.266       .  A
O229       Cd232   2.495       .  S
C230        O238   1.268       .  A
C230       C2385   1.483       .  S
C231        O236   1.269       .  A
C231        O234   1.263       .  A
C231       C2405   1.483       .  S
Cd232       O239   2.467       .  S
Cd232       O238   2.490       .  S
Cd232       O237   2.455       .  S
Cd232       O233   2.489       .  S
Cd232       O236   2.511       .  S
Cd232       O234   2.434       .  S
C235        O239   1.265       .  A
C235       C2425   1.483       .  S
O240        C243   1.265       .  A
O240       Cd245   2.466       .  S
C241        O250   1.266       .  A
C241        O246   1.267       .  A
C241       C2745   1.483       .  S
O242        C248   1.267       .  A
O242       Cd245   2.499       .  S
C243        O251   1.265       .  A
C243       C2354   1.482       .  S
C244        O249   1.266       .  A
C244        O247   1.265       .  A
C244       C2434   1.483       .  S
Cd245       O252   2.463       .  S
Cd245       O251   2.491       .  S
Cd245       O250   2.463       .  S
Cd245       O246   2.480       .  S
Cd245       O249   2.496       .  S
Cd245       O247   2.467       .  S
C248        O252   1.263       .  A
C248       C2365   1.483       .  S
O253        C256   1.267       .  A
O253       Cd258   2.506       .  S
C254        O263   1.265       .  A
C254        O259   1.268       .  A
C254       C2674   1.478       .  S
O255        C261   1.268       .  A
O255       Cd258   2.504       .  S
C256        O264   1.264       .  A
C256       C2314   1.484       .  S
C257        O262   1.266       .  A
C257        O260   1.266       .  A
C257       C2325   1.486       .  S
Cd258       O265   2.439       .  S
Cd258       O264   2.452       .  S
Cd258       O263   2.450       .  S
Cd258       O259   2.476       .  S
Cd258       O262   2.485       .  S
Cd258       O260   2.483       .  S
C261        O265   1.264       .  A
C261       C2465   1.482       .  S
O266        C269   1.266       .  A
O266       Cd271   2.486       .  S
C267        O276   1.267       .  A
C267        O272   1.266       .  A
C267       C2285   1.486       .  S
O268        C274   1.263       .  A
O268       Cd271   2.466       .  S
C269        O277   1.264       .  A
C269       C2625   1.480       .  S
C270        O275   1.265       .  A
C270        O273   1.265       .  A
C270       C2334   1.485       .  S
Cd271       O278   2.493       .  S
Cd271       O277   2.457       .  S
Cd271       O276   2.499       .  S
Cd271       O272   2.471       .  S
Cd271       O275   2.500       .  S
Cd271       O273   2.479       .  S
C274        O278   1.266       .  A
C274       C2374   1.483       .  S
O279        C282   1.267       .  A
O279       Cd284   2.472       .  S
C280        O289   1.265       .  A
C280        O285   1.268       .  A
C280       C2914   1.482       .  S
O281        C287   1.267       .  A
O281       Cd284   2.497       .  S
C282        O290   1.267       .  A
C282       C3065   1.485       .  S
C283        O288   1.263       .  A
C283        O286   1.269       .  A
C283       C2494   1.483       .  S
Cd284       O291   2.484       .  S
Cd284       O290   2.485       .  S
Cd284       O289   2.440       .  S
Cd284       O285   2.498       .  S
Cd284       O288   2.435       .  S
Cd284       O286   2.521       .  S
C287        O291   1.266       .  A
C287       C2265   1.488       .  S
O292        C295   1.266       .  A
O292       Cd297   2.458       .  S
C293        O302   1.263       .  A
C293        O298   1.264       .  A
C293       C2874   1.479       .  S
O294        C300   1.269       .  A
O294       Cd297   2.497       .  S
C295        O303   1.268       .  A
C295       C2245   1.482       .  S
C296        O301   1.266       .  A
C296        O299   1.263       .  A
C296       C2274   1.487       .  S
Cd297       O304   2.452       .  S
Cd297       O303   2.480       .  S
Cd297       O302   2.470       .  S
Cd297       O298   2.480       .  S
Cd297       O301   2.510       .  S
Cd297       O299   2.476       .  S
C300        O304   1.265       .  A
C300       C2414   1.483       .  S
C305        C306   1.546       .  S
C305        C311   1.534       .  S
C305        C309   1.538       .  S
C305       C2734   1.531       .  S
C306        H313   1.082       .  S
C306        C307   1.373       .  D
C307        C308   1.543       .  S
C307       C2185   1.488       .  S
C308        C312   1.547       .  S
C308        C310   1.530       .  S
C308        H314   1.110       .  S
C309        H315   1.087       .  S
C309        C310   1.360       .  D
C310       C2205   1.469       .  S
C311        H316   1.086       .  S
C311        C312   1.368       .  D
C312       C2234   1.494       .  S
C317        C318   1.534       .  S
C317        C323   1.543       .  S
C317        C321   1.540       .  S
C317       C2125   1.534       .  S
C318        H325   1.086       .  S
C318        C319   1.366       .  D
C319        C320   1.547       .  S
C319       C2154   1.489       .  S
C320        C324   1.547       .  S
C320        C322   1.539       .  S
C320        H326   1.109       .  S
C321        H327   1.085       .  S
C321        C322   1.367       .  D
C322       C2165   1.494       .  S
C323        H328   1.081       .  S
C323        C324   1.370       .  D
C324       C2225   1.493       .  S
C329        C330   1.539       .  S
C329        C335   1.536       .  S
C329        C333   1.536       .  S
C329       C2614   1.537       .  S
C330        H337   1.081       .  S
C330        C331   1.364       .  D
C331        C332   1.542       .  S
C331       C2105   1.488       .  S
C332        C336   1.552       .  S
C332        C334   1.538       .  S
C332        H338   1.107       .  S
C333        H339   1.086       .  S
C333        C334   1.366       .  D
C334       C2214   1.482       .  S
C335        H340   1.084       .  S
C335        C336   1.377       .  D
C336       C2085   1.508       .  S
C341        C342   1.537       .  S
C341        C347   1.544       .  S
C341        C345   1.534       .  S
C341       C2054   1.534       .  S
C342        H349   1.085       .  S
C342        C343   1.368       .  D
C343        C344   1.548       .  S
C343       C2114   1.497       .  S
C344        C348   1.550       .  S
C344        C346   1.532       .  S
C344        H350   1.106       .  S
C345        H351   1.087       .  S
C345        C346   1.360       .  D
C346       C2174   1.473       .  S
C347        H352   1.080       .  S
C347        C348   1.378       .  D
C348       C2065   1.506       .  S
C353        C354   1.534       .  S
C353        C359   1.537       .  S
C353        C357   1.529       .  S
C353       C2345   1.531       .  S
C354        H361   1.086       .  S
C354        C355   1.367       .  D
C355        C356   1.548       .  S
C355       C2025   1.494       .  S
C356        C360   1.556       .  S
C356        C358   1.542       .  S
C356        H362   1.108       .  S
C357        H363   1.086       .  S
C357        C358   1.363       .  D
C358       C2005   1.484       .  S
C359        H364   1.078       .  S
C359        C360   1.376       .  D
C360       C2194   1.507       .  S
C365        C366   1.541       .  S
C365        C371   1.536       .  S
C365        C369   1.540       .  S
C365       C1965   1.535       .  S
C366        H373   1.079       .  S
C366        C367   1.370       .  D
C367        C368   1.552       .  S
C367       C2034   1.504       .  S
C368        C372   1.552       .  S
C368        C370   1.533       .  S
C368        H374   1.108       .  S
C369        H375   1.087       .  S
C369        C370   1.361       .  D
C370       C1985   1.472       .  S
C371        H376   1.086       .  S
C371        C372   1.371       .  D
C372       C2145   1.502       .  S
C377        C378   1.535       .  S
C377        C383   1.541       .  S
C377        C381   1.534       .  S
C377       C2294   1.536       .  S
C378        H385   1.086       .  S
C378        C379   1.368       .  D
C379        C380   1.544       .  S
C379       C2094   1.491       .  S
C380        C384   1.556       .  S
C380        C382   1.537       .  S
C380        H386   1.107       .  S
C381        H387   1.086       .  S
C381        C382   1.364       .  D
C382       C2014   1.484       .  S
C383        H388   1.078       .  S
C383        C384   1.375       .  D
C384       C1954   1.509       .  S
C389        C390   1.536       .  S
C389        C395   1.541       .  S
C389        C393   1.539       .  S
C389       C1934   1.535       .  S
C390        H397   1.086       .  S
C390        C391   1.370       .  D
C391        C392   1.546       .  S
C391       C2074   1.487       .  S
C392        C396   1.544       .  S
C392        C394   1.537       .  S
C392        H398   1.110       .  S
C393        H399   1.086       .  S
C393        C394   1.365       .  D
C394       C1994   1.485       .  S
C395        H400   1.081       .  S
C395        C396   1.368       .  D
C396       C1945   1.489       .  S
C401        C402   1.541       .  S
C401        C407   1.533       .  S
C401        C405   1.534       .  S
C401       C2854   1.528       .  S
C402        H409   1.082       .  S
C402        C403   1.369       .  D
C403        C404   1.547       .  S
C403       C1865   1.490       .  S
C404        C408   1.555       .  S
C404        C406   1.535       .  S
C404        H410   1.108       .  S
C405        H411   1.087       .  S
C405        C406   1.361       .  D
C406       C1885   1.476       .  S
C407        H412   1.084       .  S
C407        C408   1.371       .  D
C408       C1914   1.505       .  S
C413        C414   1.537       .  S
C413        C419   1.542       .  S
C413        C417   1.542       .  S
C413       C1814   1.537       .  S
C414        H421   1.086       .  S
C414        C415   1.370       .  D
C415        C416   1.544       .  S
C415       C1825   1.487       .  S
C416        C420   1.543       .  S
C416        C418   1.534       .  S
C416        H422   1.110       .  S
C417        H423   1.086       .  S
C417        C418   1.366       .  D
C418       C1854   1.481       .  S
C419        H424   1.080       .  S
C419        C420   1.367       .  D
C420       C1905   1.493       .  S
C425        C426   1.536       .  S
C425        C431   1.543       .  S
C425        C429   1.538       .  S
C425       C1754   1.536       .  S
C426        H433   1.086       .  S
C426        C427   1.369       .  D
C427        C428   1.548       .  S
C427       C1785   1.496       .  S
C428        C432   1.551       .  S
C428        C430   1.531       .  S
C428        H434   1.108       .  S
C429        H435   1.087       .  S
C429        C430   1.361       .  D
C430       C1845   1.469       .  S
C431        H436   1.080       .  S
C431        C432   1.374       .  D
C432       C1774   1.505       .  S
C437        C438   1.528       .  S
C437        C443   1.541       .  S
C437        C441   1.534       .  S
C437       C2785   1.534       .  S
C438        H445   1.086       .  S
C438        C439   1.364       .  D
C439        C440   1.553       .  S
C439       C1794   1.496       .  S
C440        C444   1.555       .  S
C440        C442   1.543       .  S
C440        H446   1.105       .  S
C441        H447   1.085       .  S
C441        C442   1.368       .  D
C442       C1894   1.496       .  S
C443        H448   1.077       .  S
C443        C444   1.376       .  D
C444       C1725   1.511       .  S
C449        C450   1.534       .  S
C449        C455   1.540       .  S
C449        C453   1.532       .  S
C449       C2254   1.535       .  S
C450        H457   1.085       .  S
C450        C451   1.370       .  D
C451        C452   1.550       .  S
C451       C1705   1.499       .  S
C452        C456   1.555       .  S
C452        C454   1.540       .  S
C452        H458   1.105       .  S
C453        H459   1.086       .  S
C453        C454   1.366       .  D
C454       C1685   1.488       .  S
C455        H460   1.077       .  S
C455        C456   1.373       .  D
C456       C1874   1.511       .  S
C461        C462   1.531       .  S
C461        C467   1.536       .  S
C461        C465   1.531       .  S
C461       C1645   1.529       .  S
C462        H469   1.087       .  S
C462        C463   1.364       .  D
C463        C464   1.545       .  S
C463       C1714   1.487       .  S
C464        C468   1.558       .  S
C464        C466   1.545       .  S
C464        H470   1.108       .  S
C465        H471   1.085       .  S
C465        C466   1.366       .  D
C466       C1665   1.493       .  S
C467        H472   1.079       .  S
C467        C468   1.376       .  D
C468       C1834   1.506       .  S
C473        C474   1.535       .  S
C473        C479   1.539       .  S
C473        C477   1.536       .  S
C473       C1605   1.534       .  S
C474        H481   1.086       .  S
C474        C475   1.368       .  D
C475        C476   1.545       .  S
C475       C1765   1.490       .  S
C476        C480   1.552       .  S
C476        C478   1.543       .  S
C476        H482   1.108       .  S
C477        H483   1.085       .  S
C477        C478   1.367       .  D
C478       C1674   1.497       .  S
C479        H484   1.082       .  S
C479        C480   1.371       .  D
C480       C1634   1.495       .  S
C485        C486   1.532       .  S
C485        C491   1.538       .  S
C485        C489   1.538       .  S
C485       C2394   1.533       .  S
C486        H493   1.086       .  S
C486        C487   1.367       .  D
C487        C488   1.546       .  S
C487       C1734   1.489       .  S
C488        C492   1.551       .  S
C488        C490   1.542       .  S
C488        H494   1.108       .  S
C489        H495   1.084       .  S
C489        C490   1.370       .  D
C490       C1694   1.498       .  S
C491        H496   1.082       .  S
C491        C492   1.368       .  D
C492       C1625   1.494       .  S
O497        C500   1.267       .  A
O497       Cd502   2.482       .  S
C498        O507   1.266       .  A
C498        O503   1.267       .  A
C498       C1525   1.479       .  S
O499        C505   1.269       .  A
O499       Cd502   2.514       .  S
C500        O508   1.266       .  A
C500       C1554   1.480       .  S
C501        O506   1.267       .  A
C501        O504   1.265       .  A
C501       C1585   1.484       .  S
Cd502       O509   2.443       .  S
Cd502       O508   2.456       .  S
Cd502       O507   2.460       .  S
Cd502       O503   2.464       .  S
Cd502       O506   2.489       .  S
Cd502       O504   2.471       .  S
C505        O509   1.264       .  A
C505       C1565   1.484       .  S
O510        C513   1.265       .  A
O510       Cd515   2.470       .  S
C511        O520   1.268       .  A
C511        O516   1.266       .  A
C511       C3134   1.487       .  S
O512        C518   1.266       .  A
O512       Cd515   2.503       .  S
C513        O521   1.265       .  A
C513       C1485   1.480       .  S
C514        O519   1.267       .  A
C514        O517   1.264       .  A
C514       C1505   1.484       .  S
Cd515       O522   2.475       .  S
Cd515       O521   2.476       .  S
Cd515       O520   2.491       .  S
Cd515       O516   2.478       .  S
Cd515       O519   2.515       .  S
Cd515       O517   2.448       .  S
C518        O522   1.264       .  A
C518       C1594   1.486       .  S
O523        C526   1.265       .  A
O523       Cd528   2.472       .  S
C524        O533   1.266       .  A
C524        O529   1.267       .  A
C524       C1425   1.480       .  S
O525        C531   1.265       .  A
O525       Cd528   2.510       .  S
C526        O534   1.266       .  A
C526       C1745   1.486       .  S
C527        O532   1.265       .  A
C527        O530   1.264       .  A
C527       C1465   1.489       .  S
Cd528       O535   2.477       .  S
Cd528       O534   2.499       .  S
Cd528       O533   2.450       .  S
Cd528       O529   2.484       .  S
Cd528       O532   2.500       .  S
Cd528       O530   2.500       .  S
C531        O535   1.262       .  A
C531       C1445   1.485       .  S
O536        C539   1.266       .  A
O536       Cd541   2.480       .  S
C537        O546   1.268       .  A
C537        O542   1.266       .  A
C537       C3225   1.486       .  S
O538        C544   1.270       .  A
O538       Cd541   2.532       .  S
C539        O547   1.265       .  A
C539       C1405   1.481       .  S
C540        O545   1.267       .  A
C540        O543   1.264       .  A
C540       C1474   1.488       .  S
Cd541       O548   2.427       .  S
Cd541       O547   2.469       .  S
Cd541       O546   2.495       .  S
Cd541       O542   2.474       .  S
Cd541       O545   2.509       .  S
Cd541       O543   2.486       .  S
C544        O548   1.263       .  A
C544       C1514   1.486       .  S
O549        C552   1.266       .  A
O549       Cd554   2.508       .  S
C550        O559   1.268       .  A
C550        O555   1.266       .  A
C550       C1345   1.485       .  S
O551        C557   1.267       .  A
O551       Cd554   2.511       .  S
C552        O560   1.265       .  A
C552       C2045   1.489       .  S
C553        O558   1.266       .  A
C553        O556   1.265       .  A
C553       C1385   1.489       .  S
Cd554       O561   2.462       .  S
Cd554       O560   2.491       .  S
Cd554       O559   2.492       .  S
Cd554       O555   2.469       .  S
Cd554       O558   2.513       .  S
Cd554       O556   2.486       .  S
C557        O561   1.264       .  A
C557       C1365   1.485       .  S
O562        C565   1.265       .  A
O562       Cd567   2.492       .  S
C563        O572   1.268       .  A
C563        O568   1.266       .  A
C563       C1805   1.486       .  S
O564        C570   1.266       .  A
O564       Cd567   2.477       .  S
C565        O573   1.262       .  A
C565       C1325   1.480       .  S
C566        O571   1.265       .  A
C566        O569   1.264       .  A
C566       C1394   1.490       .  S
Cd567       O574   2.487       .  S
Cd567       O573   2.463       .  S
Cd567       O572   2.494       .  S
Cd567       O568   2.468       .  S
Cd567       O571   2.511       .  S
Cd567       O569   2.500       .  S
C570        O574   1.266       .  A
C570       C1454   1.485       .  S
O575        C578   1.265       .  A
O575       Cd580   2.468       .  S
C576        O585   1.264       .  A
C576        O581   1.265       .  A
C576       C1285   1.479       .  S
O577        C583   1.268       .  A
O577       Cd580   2.525       .  S
C578        O586   1.266       .  A
C578       C1265   1.483       .  S
C579        O584   1.268       .  A
C579        O582   1.265       .  A
C579       C1305   1.486       .  S
Cd580       O587   2.449       .  S
Cd580       O586   2.490       .  S
Cd580       O585   2.465       .  S
Cd580       O581   2.487       .  S
Cd580       O584   2.511       .  S
Cd580       O582   2.457       .  S
C583        O587   1.264       .  A
C583       C1574   1.486       .  S
O588        C591   1.266       .  A
O588       Cd593   2.485       .  S
C589        O598   1.267       .  A
C589        O594   1.265       .  A
C589       C2134   1.483       .  S
O590        C596   1.266       .  A
O590       Cd593   2.493       .  S
C591        O599   1.264       .  A
C591       C1245   1.479       .  S
C592        O597   1.267       .  A
C592        O595   1.265       .  A
C592       C1314   1.487       .  S
Cd593       O600   2.480       .  S
Cd593       O599   2.454       .  S
Cd593       O598   2.485       .  S
Cd593       O594   2.471       .  S
Cd593       O597   2.504       .  S
Cd593       O595   2.476       .  S
C596        O600   1.264       .  A
C596       C1374   1.486       .  S
O601        C604   1.265       .  A
O601       Cd606   2.473       .  S
C602        O611   1.265       .  A
C602        O607   1.265       .  A
C602       C1254   1.479       .  S
O603        C609   1.266       .  A
O603       Cd606   2.472       .  S
C604        O612   1.265       .  A
C604       C1974   1.481       .  S
C605        O610   1.265       .  A
C605        O608   1.264       .  A
C605       C1225   1.479       .  S
Cd606       O613   2.473       .  S
Cd606       O612   2.477       .  S
Cd606       O611   2.462       .  S
Cd606       O607   2.476       .  S
Cd606       O610   2.487       .  S
Cd606       O608   2.463       .  S
C609        O613   1.266       .  A
C609       C1205   1.481       .  S
O614        C617   1.267       .  A
O614       Cd619   2.466       .  S
C615        O624   1.264       .  A
C615        O620   1.265       .  A
C615       C1294   1.479       .  S
O616        C622   1.264       .  A
O616       Cd619   2.477       .  S
C617        O625   1.266       .  A
C617       C1165   1.481       .  S
C618        O623   1.264       .  A
C618        O621   1.264       .  A
C618       C1194   1.482       .  S
Cd619       O626   2.471       .  S
Cd619       O625   2.472       .  S
Cd619       O624   2.462       .  S
Cd619       O620   2.475       .  S
Cd619       O623   2.482       .  S
Cd619       O621   2.477       .  S
C622        O626   1.264       .  A
C622       C1234   1.480       .  S
O627        C630   1.266       .  A
O627       Cd632   2.463       .  S
C628        O637   1.265       .  A
C628        O633   1.265       .  A
C628       C1334   1.481       .  S
O629        C635   1.268       .  A
O629       Cd632   2.517       .  S
C630        O638   1.267       .  A
C630       C1654   1.480       .  S
C631        O636   1.267       .  A
C631        O634   1.263       .  A
C631       C1145   1.484       .  S
Cd632       O639   2.441       .  S
Cd632       O638   2.475       .  S
Cd632       O637   2.473       .  S
Cd632       O633   2.475       .  S
Cd632       O636   2.509       .  S
Cd632       O634   2.460       .  S
C635        O639   1.264       .  A
C635       C1125   1.485       .  S
O640        C643   1.266       .  A
O640       Cd645   2.461       .  S
C641        O650   1.264       .  A
C641        O646   1.262       .  A
C641       C1354   1.482       .  S
O642        C648   1.265       .  A
O642       Cd645   2.509       .  S
C643        O651   1.269       .  A
C643       C1925   1.486       .  S
C644        O649   1.265       .  A
C644        O647   1.266       .  A
C644       C1214   1.481       .  S
Cd645       O652   2.468       .  S
Cd645       O651   2.500       .  S
Cd645       O650   2.494       .  S
Cd645       O646   2.475       .  S
Cd645       O649   2.457       .  S
Cd645       O647   2.486       .  S
C648        O652   1.263       .  A
C648       C1154   1.484       .  S
O653        C656   1.264       .  A
O653       Cd658   2.456       .  S
C654        O663   1.266       .  A
C654        O659   1.267       .  A
C654       C1494   1.478       .  S
O655        C661   1.267       .  A
O655       Cd658   2.494       .  S
C656        O664   1.267       .  A
C656       C3025   1.484       .  S
C657        O662   1.269       .  A
C657        O660   1.261       .  A
C657       C1085   1.489       .  S
Cd658       O665   2.493       .  S
Cd658       O664   2.506       .  S
Cd658       O663   2.459       .  S
Cd658       O659   2.466       .  S
Cd658       O662   2.549       .  S
Cd658       O660   2.441       .  S
C661        O665   1.265       .  A
C661       C1105   1.488       .  S
O666        C669   1.264       .  A
O666       Cd671   2.476       .  S
C667        O676   1.266       .  A
C667        O672   1.267       .  A
C667       C1545   1.480       .  S
O668        C674   1.267       .  A
O668       Cd671   2.501       .  S
C669        O677   1.264       .  A
C669       C1065   1.482       .  S
C670        O675   1.266       .  A
C670        O673   1.264       .  A
C670       C1114   1.487       .  S
Cd671       O678   2.461       .  S
Cd671       O677   2.490       .  S
Cd671       O676   2.450       .  S
Cd671       O672   2.486       .  S
Cd671       O675   2.504       .  S
Cd671       O673   2.481       .  S
C674        O678   1.264       .  A
C674       C1185   1.483       .  S
O679        C682   1.266       .  A
O679       Cd684   2.471       .  S
C680        O689   1.267       .  A
C680        O685   1.266       .  A
C680       C2994   1.484       .  S
O681        C687   1.268       .  A
O681       Cd684   2.518       .  S
C682        O690   1.266       .  A
C682       C1414   1.481       .  S
C683        O688   1.270       .  A
C683        O686   1.264       .  A
C683       C1094   1.488       .  S
Cd684       O691   2.469       .  S
Cd684       O690   2.472       .  S
Cd684       O689   2.483       .  S
Cd684       O685   2.476       .  S
Cd684       O688   2.523       .  S
Cd684       O686   2.447       .  S
C687        O691   1.264       .  A
C687       C1045   1.489       .  S
O692        C695   1.267       .  A
O692       Cd697   2.499       .  S
C693        O702   1.267       .  A
C693        O698   1.266       .  A
C693       C1614   1.485       .  S
O694        C700   1.269       .  A
O694       Cd697   2.516       .  S
C695        O703   1.264       .  A
C695       C1434   1.479       .  S
C696        O701   1.265       .  A
C696        O699   1.265       .  A
C696       C1054   1.488       .  S
Cd697       O704   2.443       .  S
Cd697       O703   2.433       .  S
Cd697       O702   2.485       .  S
Cd697       O698   2.475       .  S
Cd697       O701   2.488       .  S
Cd697       O699   2.505       .  S
C700        O704   1.264       .  A
C700       C1134   1.485       .  S
C705        C706   1.532       .  S
C705        C711   1.534       .  S
C705        C709   1.541       .  S
C705        C994   1.529       .  S
C706        H713   1.086       .  S
C706        C707   1.361       .  D
C707        C708   1.538       .  S
C707       C1005   1.486       .  S
C708        C712   1.550       .  S
C708        C710   1.547       .  S
C708        H714   1.105       .  S
C709        H715   1.082       .  S
C709        C710   1.375       .  D
C710       C1025   1.492       .  S
C711        H716   1.083       .  S
C711        C712   1.371       .  D
C712       C2525   1.505       .  S
C717        C718   1.542       .  S
C717        C723   1.543       .  S
C717        C721   1.536       .  S
C717       C1034   1.538       .  S
C718        H725   1.086       .  S
C718        C719   1.374       .  D
C719        C720   1.545       .  S
C719        C945   1.492       .  S
C720        C724   1.540       .  S
C720        C722   1.539       .  S
C720        H726   1.110       .  S
C721        H727   1.086       .  S
C721        C722   1.364       .  D
C722        C965   1.484       .  S
C723        H728   1.079       .  S
C723        C724   1.366       .  D
C724       C1274   1.491       .  S
C729        C730   1.540       .  S
C729        C735   1.537       .  S
C729        C733   1.534       .  S
C729       C1534   1.530       .  S
C730        H737   1.081       .  S
C730        C731   1.369       .  D
C731        C732   1.551       .  S
C731        C905   1.499       .  S
C732        C736   1.549       .  S
C732        C734   1.543       .  S
C732        H738   1.108       .  S
C733        H739   1.086       .  S
C733        C734   1.365       .  D
C734        C974   1.490       .  S
C735        H740   1.086       .  S
C735        C736   1.368       .  D
C736        C925   1.494       .  S
C741        C742   1.535       .  S
C741        C747   1.541       .  S
C741        C745   1.535       .  S
C741       C2654   1.531       .  S
C742        H749   1.086       .  S
C742        C743   1.365       .  D
C743        C744   1.543       .  S
C743        C885   1.485       .  S
C744        C748   1.552       .  S
C744        C746   1.545       .  S
C744        H750   1.107       .  S
C745        H751   1.085       .  S
C745        C746   1.366       .  D
C746       C1014   1.499       .  S
C747        H752   1.081       .  S
C747        C748   1.372       .  D
C748        C934   1.499       .  S
C753        C754   1.530       .  S
C753        C759   1.535       .  S
C753        C757   1.536       .  S
C753       C2445   1.523       .  S
C754        H761   1.085       .  S
C754        C755   1.368       .  D
C755        C756   1.548       .  S
C755        C985   1.497       .  S
C756        C760   1.551       .  S
C756        C758   1.543       .  S
C756        H762   1.107       .  S
C757        H763   1.086       .  S
C757        C758   1.365       .  D
C758        C845   1.495       .  S
C759        H764   1.083       .  S
C759        C760   1.368       .  D
C760        C865   1.485       .  S
C765        C766   1.544       .  S
C765        C771   1.539       .  S
C765        C769   1.533       .  S
C765       C1174   1.530       .  S
C766        H773   1.080       .  S
C766        C767   1.375       .  D
C767        C768   1.548       .  S
C767        C954   1.502       .  S
C768        C772   1.547       .  S
C768        C770   1.536       .  S
C768        H774   1.104       .  S
C769        H775   1.087       .  S
C769        C770   1.357       .  D
C770        C825   1.474       .  S
C771        H776   1.085       .  S
C771        C772   1.371       .  D
C772        C874   1.503       .  S
C777        C778   1.545       .  S
C777        C783   1.546       .  S
C777        C781   1.538       .  S
C777        C814   1.538       .  S
C778        H785   1.086       .  S
C778        C779   1.374       .  D
C779        C780   1.541       .  S
C779        C914   1.492       .  S
C780        C784   1.538       .  S
C780        C782   1.531       .  S
C780        H786   1.109       .  S
C781        H787   1.087       .  S
C781        C782   1.361       .  D
C782        C834   1.478       .  S
C783        H788   1.080       .  S
C783        C784   1.369       .  D
C784       C1074   1.491       .  S
C789        C790   1.532       .  S
C789        C795   1.544       .  S
C789        C793   1.534       .  S
C789        C894   1.531       .  S
C790        H797   1.086       .  S
C790        C791   1.367       .  D
C791        C792   1.545       .  S
C791       C2305   1.493       .  S
C792        C796   1.547       .  S
C792        C794   1.540       .  S
C792        H798   1.109       .  S
C793        H799   1.087       .  S
C793        C794   1.362       .  D
C794        C854   1.483       .  S
C795        H800   1.082       .  S
C795        C796   1.376       .  D
C796        C805   1.497       .  S
C801        C802   1.408       .  A
C801        C806   1.405       .  A
C801        H811   1.083       .  S
C802        C807   1.497       .  S
C802        C803   1.407       .  A
C803        C804   1.398       .  A
C803        H808   1.083       .  S
C804        C805   1.406       .  A
C804        H809   1.082       .  S
C805        C806   1.407       .  A
C806        H810   1.081       .  S
C807        C812   1.406       .  A
C807        C816   1.406       .  A
C812        C813   1.403       .  A
C812        H817   1.082       .  S
C813        C814   1.411       .  A
C813        H818   1.083       .  S
C814        C815   1.411       .  A
C815        C816   1.401       .  A
C815        H819   1.077       .  S
C816        H820   1.083       .  S
C821        C822   1.407       .  A
C821        C826   1.395       .  A
C821        H831   1.083       .  S
C822        C827   1.485       .  S
C822        C823   1.407       .  A
C823        C824   1.398       .  A
C823        H828   1.083       .  S
C824        C825   1.403       .  A
C824        H829   1.083       .  S
C825        C826   1.399       .  A
C826        H830   1.080       .  S
C827        C832   1.405       .  A
C827        C836   1.408       .  A
C832        C833   1.393       .  A
C832        H837   1.083       .  S
C833        C834   1.403       .  A
C833        H838   1.083       .  S
C834        C835   1.403       .  A
C835        C836   1.399       .  A
C835        H839   1.083       .  S
C836        H840   1.083       .  S
C841        C842   1.406       .  A
C841        C846   1.399       .  A
C841        H851   1.083       .  S
C842        C847   1.488       .  S
C842        C843   1.404       .  A
C843        C844   1.397       .  A
C843        H848   1.083       .  S
C844        C845   1.409       .  A
C844        H849   1.082       .  S
C845        C846   1.405       .  A
C846        H850   1.078       .  S
C847        C852   1.405       .  A
C847        C856   1.408       .  A
C852        C853   1.396       .  A
C852        H857   1.083       .  S
C853        C854   1.405       .  A
C853        H858   1.083       .  S
C854        C855   1.402       .  A
C855        C856   1.400       .  A
C855        H859   1.083       .  S
C856        H860   1.083       .  S
C861        C862   1.406       .  A
C861        C866   1.397       .  A
C861        H871   1.083       .  S
C862        C867   1.487       .  S
C862        C863   1.405       .  A
C863        C864   1.402       .  A
C863        H868   1.083       .  S
C864        C865   1.407       .  A
C864        H869   1.083       .  S
C865        C866   1.401       .  A
C866        H870   1.079       .  S
C867        C872   1.403       .  A
C867        C876   1.404       .  A
C872        C873   1.397       .  A
C872        H877   1.083       .  S
C873        C874   1.408       .  A
C873        H878   1.077       .  S
C874        C875   1.412       .  A
C875        C876   1.403       .  A
C875        H879   1.081       .  S
C876        H880   1.083       .  S
C881        C882   1.404       .  A
C881        C886   1.403       .  A
C881        H891   1.083       .  S
C882        C887   1.482       .  S
C882        C883   1.405       .  A
C883        C884   1.397       .  A
C883        H888   1.083       .  S
C884        C885   1.403       .  A
C884        H889   1.083       .  S
C885        C886   1.407       .  A
C886        H890   1.083       .  S
C887        C892   1.405       .  A
C887        C896   1.399       .  A
C892        C893   1.407       .  A
C892        H897   1.083       .  S
C893        C894   1.412       .  A
C893        H898   1.079       .  S
C894        C895   1.410       .  A
C895        C896   1.392       .  A
C895        H899   1.083       .  S
C896        H900   1.083       .  S
C901        C902   1.407       .  A
C901        C906   1.402       .  A
C901        H911   1.083       .  S
C902        C907   1.494   1_554  S
C902        C903   1.405       .  A
C903        C904   1.401       .  A
C903        H908   1.083       .  S
C904        C905   1.409       .  A
C904        H909   1.082       .  S
C905        C906   1.405       .  A
C906        H910   1.077       .  S
C907        C912   1.406       .  A
C907        C916   1.409       .  A
C912        C913   1.399       .  A
C912        H917   1.083       .  S
C913        C914   1.407       .  A
C913        H918   1.083       .  S
C914        C915   1.405       .  A
C915        C916   1.405       .  A
C915        H919   1.083       .  S
C916        H920   1.083       .  S
C921        C922   1.407       .  A
C921        C926   1.400       .  A
C921        H931   1.083       .  S
C922        C927   1.492       .  S
C922        C923   1.406       .  A
C923        C924   1.402       .  A
C923        H928   1.083       .  S
C924        C925   1.409       .  A
C924        H929   1.082       .  S
C925        C926   1.405       .  A
C926        H930   1.082       .  S
C927        C932   1.406       .  A
C927        C936   1.406       .  A
C932        C933   1.400       .  A
C932        H937   1.083       .  S
C933        C934   1.405       .  A
C933        H938   1.078       .  S
C934        C935   1.410       .  A
C935        C936   1.403       .  A
C935        H939   1.082       .  S
C936        H940   1.083       .  S
C941        C942   1.405       .  A
C941        C946   1.400       .  A
C941        H951   1.083       .  S
C942        C947   1.490   1_554  S
C942        C943   1.407       .  A
C943        C944   1.404       .  A
C943        H948   1.083       .  S
C944        C945   1.407       .  A
C944        H949   1.083       .  S
C945        C946   1.404       .  A
C946        H950   1.081       .  S
C947        C952   1.405       .  A
C947        C956   1.404       .  A
C952        C953   1.401       .  A
C952        H957   1.083       .  S
C953        C954   1.409       .  A
C953        H958   1.082       .  S
C954        C955   1.410       .  A
C955        C956   1.402       .  A
C955        H959   1.081       .  S
C956        H960   1.083       .  S
C961        C962   1.404       .  A
C961        C966   1.396       .  A
C961        H971   1.083       .  S
C962        C967   1.485       .  S
C962        C963   1.407       .  A
C963        C964   1.400       .  A
C963        H968   1.083       .  S
C964        C965   1.403       .  A
C964        H969   1.083       .  S
C965        C966   1.405       .  A
C966        H970   1.083       .  S
C967        C972   1.404       .  A
C967        C976   1.405       .  A
C972        C973   1.397       .  A
C972        H977   1.083       .  S
C973        C974   1.408       .  A
C973        H978   1.082       .  S
C974        C975   1.403       .  A
C975        C976   1.399       .  A
C975        H979   1.077       .  S
C976        H980   1.083       .  S
C981        C982   1.408       .  A
C981        C986   1.408       .  A
C981        H991   1.083       .  S
C982        C987   1.491       .  S
C982        C983   1.403       .  A
C983        C984   1.390       .  A
C983        H988   1.083       .  S
C984        C985   1.408       .  A
C984        H989   1.081       .  S
C985        C986   1.408       .  A
C986        H990   1.082       .  S
C987        C992   1.407       .  A
C987        C996   1.403       .  A
C992        C993   1.408       .  A
C992        H997   1.083       .  S
C993        C994   1.411       .  A
C993        H998   1.079       .  S
C994        C995   1.407       .  A
C995        C996   1.390       .  A
C995        H999   1.084       .  S
C996       H1000   1.083       .  S
C1001      C1002   1.404       .  A
C1001      C1006   1.395       .  A
C1001      H1011   1.083       .  S
C1002      C1007   1.487       .  S
C1002      C1003   1.409       .  A
C1003      C1004   1.402       .  A
C1003      H1008   1.083       .  S
C1004      C1005   1.404       .  A
C1004      H1009   1.083       .  S
C1005      C1006   1.406       .  A
C1006      H1010   1.083       .  S
C1007      C1012   1.406       .  A
C1007      C1016   1.402       .  A
C1012      C1013   1.401       .  A
C1012      H1017   1.083       .  S
C1013      C1014   1.407       .  A
C1013      H1018   1.078       .  S
C1014      C1015   1.411       .  A
C1015      C1016   1.396       .  A
C1015      H1019   1.081       .  S
C1016      H1020   1.083       .  S
C1021      C1022   1.407       .  A
C1021      C1026   1.398       .  A
C1021      H1031   1.083       .  S
C1022      C1027   1.493       .  S
C1022      C1023   1.406       .  A
C1023      C1024   1.402       .  A
C1023      H1028   1.083       .  S
C1024      C1025   1.407       .  A
C1024      H1029   1.082       .  S
C1025      C1026   1.405       .  A
C1026      H1030   1.082       .  S
C1027      C1032   1.403       .  A
C1027      C1036   1.406       .  A
C1032      C1033   1.398       .  A
C1032      H1037   1.083       .  S
C1033      C1034   1.413       .  A
C1033      H1038   1.075       .  S
C1034      C1035   1.410       .  A
C1035      C1036   1.402       .  A
C1035      H1039   1.083       .  S
C1036      H1040   1.082       .  S
C1041      C1042   1.408       .  A
C1041      C1046   1.400       .  A
C1041      H1051   1.082       .  S
C1042      C1047   1.499       .  S
C1042      C1043   1.410       .  A
C1043      C1044   1.405       .  A
C1043      H1048   1.082       .  S
C1044      C1045   1.406       .  A
C1044      H1049   1.083       .  S
C1045      C1046   1.406       .  A
C1046      H1050   1.083       .  S
C1047      C1052   1.408       .  A
C1047      C1056   1.409       .  A
C1052      C1053   1.401       .  A
C1052      H1057   1.082       .  S
C1053      C1054   1.406       .  A
C1053      H1058   1.083       .  S
C1054      C1055   1.406       .  A
C1055      C1056   1.403       .  A
C1055      H1059   1.083       .  S
C1056      H1060   1.082       .  S
C1061      C1062   1.405       .  A
C1061      C1066   1.397       .  A
C1061      H1071   1.083       .  S
C1062      C1067   1.487       .  S
C1062      C1063   1.406       .  A
C1063      C1064   1.402       .  A
C1063      H1068   1.083       .  S
C1064      C1065   1.407       .  A
C1064      H1069   1.083       .  S
C1065      C1066   1.404       .  A
C1066      H1070   1.083       .  S
C1067      C1072   1.405       .  A
C1067      C1076   1.406       .  A
C1072      C1073   1.396       .  A
C1072      H1077   1.083       .  S
C1073      C1074   1.406       .  A
C1073      H1078   1.082       .  S
C1074      C1075   1.407       .  A
C1075      C1076   1.403       .  A
C1075      H1079   1.082       .  S
C1076      H1080   1.083       .  S
C1081      C1082   1.405       .  A
C1081      C1086   1.396       .  A
C1081      H1091   1.083       .  S
C1082      C1087   1.494       .  S
C1082      C1083   1.409       .  A
C1083      C1084   1.408       .  A
C1083      H1088   1.083       .  S
C1084      C1085   1.407       .  A
C1084      H1089   1.083       .  S
C1085      C1086   1.406       .  A
C1086      H1090   1.083       .  S
C1087      C1092   1.406       .  A
C1087      C1096   1.408       .  A
C1092      C1093   1.397       .  A
C1092      H1097   1.083       .  S
C1093      C1094   1.406       .  A
C1093      H1098   1.083       .  S
C1094      C1095   1.407       .  A
C1095      C1096   1.407       .  A
C1095      H1099   1.083       .  S
C1096      H1100   1.083       .  S
C1101      C1102   1.411       .  A
C1101      C1106   1.404       .  A
C1101      H1111   1.082       .  S
C1102      C1107   1.503       .  S
C1102      C1103   1.410       .  A
C1103      C1104   1.400       .  A
C1103      H1108   1.082       .  S
C1104      C1105   1.404       .  A
C1104      H1109   1.083       .  S
C1105      C1106   1.406       .  A
C1106      H1110   1.083       .  S
C1107      C1112   1.410       .  A
C1107      C1116   1.411       .  A
C1112      C1113   1.402       .  A
C1112      H1117   1.082       .  S
C1113      C1114   1.406       .  A
C1113      H1118   1.083       .  S
C1114      C1115   1.404       .  A
C1115      C1116   1.402       .  A
C1115      H1119   1.083       .  S
C1116      H1120   1.082       .  S
C1121      C1122   1.403       .  A
C1121      C1126   1.395       .  A
C1121      H1131   1.083       .  S
C1122      C1127   1.486       .  S
C1122      C1123   1.407       .  A
C1123      C1124   1.406       .  A
C1123      H1128   1.083       .  S
C1124      C1125   1.407       .  A
C1124      H1129   1.083       .  S
C1125      C1126   1.405       .  A
C1126      H1130   1.083       .  S
C1127      C1132   1.404       .  A
C1127      C1136   1.406       .  A
C1132      C1133   1.395       .  A
C1132      H1137   1.083       .  S
C1133      C1134   1.405       .  A
C1133      H1138   1.083       .  S
C1134      C1135   1.407       .  A
C1135      C1136   1.406       .  A
C1135      H1139   1.083       .  S
C1136      H1140   1.083       .  S
C1141      C1142   1.407       .  A
C1141      C1146   1.397       .  A
C1141      H1151   1.082       .  S
C1142      C1147   1.495       .  S
C1142      C1143   1.409       .  A
C1143      C1144   1.403       .  A
C1143      H1148   1.082       .  S
C1144      C1145   1.405       .  A
C1144      H1149   1.083       .  S
C1145      C1146   1.405       .  A
C1146      H1150   1.083       .  S
C1147      C1152   1.407       .  A
C1147      C1156   1.409       .  A
C1152      C1153   1.398       .  A
C1152      H1157   1.082       .  S
C1153      C1154   1.405       .  A
C1153      H1158   1.083       .  S
C1154      C1155   1.405       .  A
C1155      C1156   1.403       .  A
C1155      H1159   1.083       .  S
C1156      H1160   1.082       .  S
C1161      C1162   1.406       .  A
C1161      C1166   1.401       .  A
C1161      H1171   1.083       .  S
C1162      C1167   1.488       .  S
C1162      C1163   1.407       .  A
C1163      C1164   1.398       .  A
C1163      H1168   1.083       .  S
C1164      C1165   1.404       .  A
C1164      H1169   1.083       .  S
C1165      C1166   1.406       .  A
C1166      H1170   1.083       .  S
C1167      C1172   1.403       .  A
C1167      C1176   1.406       .  A
C1172      C1173   1.393       .  A
C1172      H1177   1.083       .  S
C1173      C1174   1.409       .  A
C1173      H1178   1.083       .  S
C1174      C1175   1.411       .  A
C1175      C1176   1.404       .  A
C1175      H1179   1.078       .  S
C1176      H1180   1.083       .  S
C1181      C1182   1.407       .  A
C1181      C1186   1.402       .  A
C1181      H1191   1.083       .  S
C1182      C1187   1.489       .  S
C1182      C1183   1.405       .  A
C1183      C1184   1.397       .  A
C1183      H1188   1.083       .  S
C1184      C1185   1.405       .  A
C1184      H1189   1.083       .  S
C1185      C1186   1.406       .  A
C1186      H1190   1.083       .  S
C1187      C1192   1.406       .  A
C1187      C1196   1.406       .  A
C1192      C1193   1.400       .  A
C1192      H1197   1.083       .  S
C1193      C1194   1.405       .  A
C1193      H1198   1.083       .  S
C1194      C1195   1.405       .  A
C1195      C1196   1.399       .  A
C1195      H1199   1.083       .  S
C1196      H1200   1.083       .  S
C1201      C1202   1.408       .  A
C1201      C1206   1.399       .  A
C1201      H1211   1.083       .  S
C1202      C1207   1.492       .  S
C1202      C1203   1.408       .  A
C1203      C1204   1.399       .  A
C1203      H1208   1.082       .  S
C1204      C1205   1.405       .  A
C1204      H1209   1.083       .  S
C1205      C1206   1.405       .  A
C1206      H1210   1.083       .  S
C1207      C1212   1.407       .  A
C1207      C1216   1.408       .  A
C1212      C1213   1.396       .  A
C1212      H1217   1.082       .  S
C1213      C1214   1.404       .  A
C1213      H1218   1.083       .  S
C1214      C1215   1.406       .  A
C1215      C1216   1.401       .  A
C1215      H1219   1.083       .  S
C1216      H1220   1.083       .  S
C1221      C1222   1.407       .  A
C1221      C1226   1.401       .  A
C1221      H1231   1.083       .  S
C1222      C1227   1.488       .  S
C1222      C1223   1.406       .  A
C1223      C1224   1.396       .  A
C1223      H1228   1.083       .  S
C1224      C1225   1.404       .  A
C1224      H1229   1.083       .  S
C1225      C1226   1.405       .  A
C1226      H1230   1.083       .  S
C1227      C1232   1.406       .  A
C1227      C1236   1.406       .  A
C1232      C1233   1.399       .  A
C1232      H1237   1.083       .  S
C1233      C1234   1.405       .  A
C1233      H1238   1.083       .  S
C1234      C1235   1.404       .  A
C1235      C1236   1.398       .  A
C1235      H1239   1.083       .  S
C1236      H1240   1.083       .  S
C1241      C1242   1.408       .  A
C1241      C1246   1.400       .  A
C1241      H1251   1.083       .  S
C1242      C1247   1.488       .  S
C1242      C1243   1.406       .  A
C1243      C1244   1.396       .  A
C1243      H1248   1.083       .  S
C1244      C1245   1.404       .  A
C1244      H1249   1.083       .  S
C1245      C1246   1.405       .  A
C1246      H1250   1.083       .  S
C1247      C1252   1.407       .  A
C1247      C1256   1.407       .  A
C1252      C1253   1.400       .  A
C1252      H1257   1.083       .  S
C1253      C1254   1.406       .  A
C1253      H1258   1.083       .  S
C1254      C1255   1.403       .  A
C1255      C1256   1.396       .  A
C1255      H1259   1.083       .  S
C1256      H1260   1.083       .  S
C1261      C1262   1.407       .  A
C1261      C1266   1.398       .  A
C1261      H1271   1.083       .  S
C1262      C1267   1.491       .  S
C1262      C1263   1.407       .  A
C1263      C1264   1.401       .  A
C1263      H1268   1.082       .  S
C1264      C1265   1.406       .  A
C1264      H1269   1.083       .  S
C1265      C1266   1.405       .  A
C1266      H1270   1.083       .  S
C1267      C1272   1.405       .  A
C1267      C1276   1.409       .  A
C1272      C1273   1.394       .  A
C1272      H1277   1.083       .  S
C1273      C1274   1.406       .  A
C1273      H1278   1.083       .  S
C1274      C1275   1.405       .  A
C1275      C1276   1.404       .  A
C1275      H1279   1.081       .  S
C1276      H1280   1.083       .  S
C1281      C1282   1.406       .  A
C1281      C1286   1.400       .  A
C1281      H1291   1.083       .  S
C1282      C1287   1.485       .  S
C1282      C1283   1.405       .  A
C1283      C1284   1.397       .  A
C1283      H1288   1.083       .  S
C1284      C1285   1.404       .  A
C1284      H1289   1.083       .  S
C1285      C1286   1.405       .  A
C1286      H1290   1.083       .  S
C1287      C1292   1.405       .  A
C1287      C1296   1.406       .  A
C1292      C1293   1.398       .  A
C1292      H1297   1.083       .  S
C1293      C1294   1.405       .  A
C1293      H1298   1.083       .  S
C1294      C1295   1.405       .  A
C1295      C1296   1.399       .  A
C1295      H1299   1.083       .  S
C1296      H1300   1.083       .  S
C1301      C1302   1.409       .  A
C1301      C1306   1.405       .  A
C1301      H1311   1.082       .  S
C1302      C1307   1.496       .  S
C1302      C1303   1.407       .  A
C1303      C1304   1.397       .  A
C1303      H1308   1.082       .  S
C1304      C1305   1.405       .  A
C1304      H1309   1.083       .  S
C1305      C1306   1.406       .  A
C1306      H1310   1.083       .  S
C1307      C1312   1.409       .  A
C1307      C1316   1.408       .  A
C1312      C1313   1.404       .  A
C1312      H1317   1.082       .  S
C1313      C1314   1.406       .  A
C1313      H1318   1.083       .  S
C1314      C1315   1.405       .  A
C1315      C1316   1.399       .  A
C1315      H1319   1.083       .  S
C1316      H1320   1.083       .  S
C1321      C1322   1.405       .  A
C1321      C1326   1.398       .  A
C1321      H1331   1.083       .  S
C1322      C1327   1.486       .  S
C1322      C1323   1.406       .  A
C1323      C1324   1.399       .  A
C1323      H1328   1.083       .  S
C1324      C1325   1.404       .  A
C1324      H1329   1.083       .  S
C1325      C1326   1.406       .  A
C1326      H1330   1.083       .  S
C1327      C1332   1.406       .  A
C1327      C1336   1.405       .  A
C1332      C1333   1.398       .  A
C1332      H1337   1.083       .  S
C1333      C1334   1.405       .  A
C1333      H1338   1.083       .  S
C1334      C1335   1.405       .  A
C1335      C1336   1.399       .  A
C1335      H1339   1.083       .  S
C1336      H1340   1.083       .  S
C1341      C1342   1.406       .  A
C1341      C1346   1.401       .  A
C1341      H1351   1.083       .  S
C1342      C1347   1.489       .  S
C1342      C1343   1.406       .  A
C1343      C1344   1.399       .  A
C1343      H1348   1.083       .  S
C1344      C1345   1.406       .  A
C1344      H1349   1.083       .  S
C1345      C1346   1.406       .  A
C1346      H1350   1.083       .  S
C1347      C1352   1.406       .  A
C1347      C1356   1.406       .  A
C1352      C1353   1.401       .  A
C1352      H1357   1.083       .  S
C1353      C1354   1.405       .  A
C1353      H1358   1.083       .  S
C1354      C1355   1.406       .  A
C1355      C1356   1.399       .  A
C1355      H1359   1.083       .  S
C1356      H1360   1.083       .  S
C1361      C1362   1.405       .  A
C1361      C1366   1.398       .  A
C1361      H1371   1.083       .  S
C1362      C1367   1.489       .  S
C1362      C1363   1.407       .  A
C1363      C1364   1.404       .  A
C1363      H1368   1.083       .  S
C1364      C1365   1.407       .  A
C1364      H1369   1.083       .  S
C1365      C1366   1.406       .  A
C1366      H1370   1.083       .  S
C1367      C1372   1.406       .  A
C1367      C1376   1.406       .  A
C1372      C1373   1.400       .  A
C1372      H1377   1.083       .  S
C1373      C1374   1.406       .  A
C1373      H1378   1.083       .  S
C1374      C1375   1.407       .  A
C1375      C1376   1.402       .  A
C1375      H1379   1.083       .  S
C1376      H1380   1.083       .  S
C1381      C1382   1.409       .  A
C1381      C1386   1.406       .  A
C1381      H1391   1.083       .  S
C1382      C1387   1.499       .  S
C1382      C1383   1.408       .  A
C1383      C1384   1.400       .  A
C1383      H1388   1.083       .  S
C1384      C1385   1.405       .  A
C1384      H1389   1.083       .  S
C1385      C1386   1.407       .  A
C1386      H1390   1.083       .  S
C1387      C1392   1.409       .  A
C1387      C1396   1.408       .  A
C1392      C1393   1.404       .  A
C1392      H1397   1.083       .  S
C1393      C1394   1.407       .  A
C1393      H1398   1.083       .  S
C1394      C1395   1.406       .  A
C1395      C1396   1.402       .  A
C1395      H1399   1.083       .  S
C1396      H1400   1.083       .  S
C1401      C1402   1.409       .  A
C1401      C1406   1.399       .  A
C1401      H1411   1.082       .  S
C1402      C1407   1.495       .  S
C1402      C1403   1.408       .  A
C1403      C1404   1.400       .  A
C1403      H1408   1.082       .  S
C1404      C1405   1.405       .  A
C1404      H1409   1.083       .  S
C1405      C1406   1.403       .  A
C1406      H1410   1.083       .  S
C1407      C1412   1.408       .  A
C1407      C1416   1.409       .  A
C1412      C1413   1.398       .  A
C1412      H1417   1.082       .  S
C1413      C1414   1.404       .  A
C1413      H1418   1.083       .  S
C1414      C1415   1.405       .  A
C1415      C1416   1.400       .  A
C1415      H1419   1.083       .  S
C1416      H1420   1.082       .  S
C1421      C1422   1.408       .  A
C1421      C1426   1.402       .  A
C1421      H1431   1.083       .  S
C1422      C1427   1.489       .  S
C1422      C1423   1.406       .  A
C1423      C1424   1.395       .  A
C1423      H1428   1.083       .  S
C1424      C1425   1.403       .  A
C1424      H1429   1.083       .  S
C1425      C1426   1.406       .  A
C1426      H1430   1.083       .  S
C1427      C1432   1.409       .  A
C1427      C1436   1.405       .  A
C1432      C1433   1.403       .  A
C1432      H1437   1.083       .  S
C1433      C1434   1.406       .  A
C1433      H1438   1.083       .  S
C1434      C1435   1.403       .  A
C1435      C1436   1.393       .  A
C1435      H1439   1.083       .  S
C1436      H1440   1.083       .  S
C1441      C1442   1.408       .  A
C1441      C1446   1.399       .  A
C1441      H1451   1.082       .  S
C1442      C1447   1.495       .  S
C1442      C1443   1.409       .  A
C1443      C1444   1.403       .  A
C1443      H1448   1.083       .  S
C1444      C1445   1.406       .  A
C1444      H1449   1.083       .  S
C1445      C1446   1.405       .  A
C1446      H1450   1.083       .  S
C1447      C1452   1.408       .  A
C1447      C1456   1.408       .  A
C1452      C1453   1.400       .  A
C1452      H1457   1.083       .  S
C1453      C1454   1.405       .  A
C1453      H1458   1.083       .  S
C1454      C1455   1.406       .  A
C1455      C1456   1.401       .  A
C1455      H1459   1.083       .  S
C1456      H1460   1.082       .  S
C1461      C1462   1.409       .  A
C1461      C1466   1.402       .  A
C1461      H1471   1.082       .  S
C1462      C1467   1.499       .  S
C1462      C1463   1.409       .  A
C1463      C1464   1.402       .  A
C1463      H1468   1.082       .  S
C1464      C1465   1.406       .  A
C1464      H1469   1.083       .  S
C1465      C1466   1.406       .  A
C1466      H1470   1.083       .  S
C1467      C1472   1.409       .  A
C1467      C1476   1.409       .  A
C1472      C1473   1.402       .  A
C1472      H1477   1.082       .  S
C1473      C1474   1.405       .  A
C1473      H1478   1.083       .  S
C1474      C1475   1.406       .  A
C1475      C1476   1.403       .  A
C1475      H1479   1.083       .  S
C1476      H1480   1.082       .  S
C1481      C1482   1.407       .  A
C1481      C1486   1.398       .  A
C1481      H1491   1.082       .  S
C1482      C1487   1.491       .  S
C1482      C1483   1.408       .  A
C1483      C1484   1.399       .  A
C1483      H1488   1.082       .  S
C1484      C1485   1.404       .  A
C1484      H1489   1.083       .  S
C1485      C1486   1.404       .  A
C1486      H1490   1.083       .  S
C1487      C1492   1.408       .  A
C1487      C1496   1.408       .  A
C1492      C1493   1.398       .  A
C1492      H1497   1.082       .  S
C1493      C1494   1.404       .  A
C1493      H1498   1.083       .  S
C1494      C1495   1.404       .  A
C1495      C1496   1.398       .  A
C1495      H1499   1.083       .  S
C1496      H1500   1.082       .  S
C1501      C1502   1.407       .  A
C1501      C1506   1.406       .  A
C1501      H1511   1.083       .  S
C1502      C1507   1.490       .  S
C1502      C1503   1.405       .  A
C1503      C1504   1.395       .  A
C1503      H1508   1.083       .  S
C1504      C1505   1.404       .  A
C1504      H1509   1.083       .  S
C1505      C1506   1.408       .  A
C1506      H1510   1.083       .  S
C1507      C1512   1.408       .  A
C1507      C1516   1.404       .  A
C1512      C1513   1.408       .  A
C1512      H1517   1.083       .  S
C1513      C1514   1.408       .  A
C1513      H1518   1.083       .  S
C1514      C1515   1.405       .  A
C1515      C1516   1.393       .  A
C1515      H1519   1.083       .  S
C1516      H1520   1.083       .  S
C1521      C1522   1.405       .  A
C1521      C1526   1.398       .  A
C1521      H1531   1.083       .  S
C1522      C1527   1.484       .  S
C1522      C1523   1.405       .  A
C1523      C1524   1.398       .  A
C1523      H1528   1.083       .  S
C1524      C1525   1.405       .  A
C1524      H1529   1.083       .  S
C1525      C1526   1.405       .  A
C1526      H1530   1.083       .  S
C1527      C1532   1.404       .  A
C1527      C1536   1.402       .  A
C1532      C1533   1.401       .  A
C1532      H1537   1.083       .  S
C1533      C1534   1.412       .  A
C1533      H1538   1.077       .  S
C1534      C1535   1.409       .  A
C1535      C1536   1.395       .  A
C1535      H1539   1.083       .  S
C1536      H1540   1.083       .  S
C1541      C1542   1.407       .  A
C1541      C1546   1.402       .  A
C1541      H1551   1.083       .  S
C1542      C1547   1.487       .  S
C1542      C1543   1.405       .  A
C1543      C1544   1.396       .  A
C1543      H1548   1.083       .  S
C1544      C1545   1.404       .  A
C1544      H1549   1.083       .  S
C1545      C1546   1.406       .  A
C1546      H1550   1.083       .  S
C1547      C1552   1.406       .  A
C1547      C1556   1.406       .  A
C1552      C1553   1.402       .  A
C1552      H1557   1.083       .  S
C1553      C1554   1.406       .  A
C1553      H1558   1.083       .  S
C1554      C1555   1.404       .  A
C1555      C1556   1.396       .  A
C1555      H1559   1.083       .  S
C1556      H1560   1.083       .  S
C1561      C1562   1.409       .  A
C1561      C1566   1.406       .  A
C1561      H1571   1.083       .  S
C1562      C1567   1.495       .  S
C1562      C1563   1.407       .  A
C1563      C1564   1.395       .  A
C1563      H1568   1.083       .  S
C1564      C1565   1.404       .  A
C1564      H1569   1.083       .  S
C1565      C1566   1.407       .  A
C1566      H1570   1.083       .  S
C1567      C1572   1.409       .  A
C1567      C1576   1.406       .  A
C1572      C1573   1.407       .  A
C1572      H1577   1.083       .  S
C1573      C1574   1.407       .  A
C1573      H1578   1.083       .  S
C1574      C1575   1.404       .  A
C1575      C1576   1.395       .  A
C1575      H1579   1.083       .  S
C1576      H1580   1.083       .  S
C1581      C1582   1.409       .  A
C1581      C1586   1.401       .  A
C1581      H1591   1.082       .  S
C1582      C1587   1.497       .  S
C1582      C1583   1.409       .  A
C1583      C1584   1.400       .  A
C1583      H1588   1.082       .  S
C1584      C1585   1.405       .  A
C1584      H1589   1.083       .  S
C1585      C1586   1.404       .  A
C1586      H1590   1.083       .  S
C1587      C1592   1.409       .  A
C1587      C1596   1.408       .  A
C1592      C1593   1.403       .  A
C1592      H1597   1.082       .  S
C1593      C1594   1.405       .  A
C1593      H1598   1.083       .  S
C1594      C1595   1.405       .  A
C1595      C1596   1.399       .  A
C1595      H1599   1.083       .  S
C1596      H1600   1.082       .  S
C1601      C1602   1.409       .  A
C1601      C1606   1.404       .  A
C1601      H1611   1.082       .  S
C1602      C1607   1.499       .  S
C1602      C1603   1.406       .  A
C1603      C1604   1.396       .  A
C1603      H1608   1.082       .  S
C1604      C1605   1.409       .  A
C1604      H1609   1.083       .  S
C1605      C1606   1.410       .  A
C1606      H1610   1.078       .  S
C1607      C1612   1.409       .  A
C1607      C1616   1.410       .  A
C1612      C1613   1.400       .  A
C1612      H1617   1.082       .  S
C1613      C1614   1.405       .  A
C1613      H1618   1.083       .  S
C1614      C1615   1.404       .  A
C1615      C1616   1.401       .  A
C1615      H1619   1.083       .  S
C1616      H1620   1.082       .  S
C1621      C1622   1.408       .  A
C1621      C1626   1.402       .  A
C1621      H1631   1.083       .  S
C1622      C1627   1.495       .  S
C1622      C1623   1.407       .  A
C1623      C1624   1.400       .  A
C1623      H1628   1.082       .  S
C1624      C1625   1.407       .  A
C1624      H1629   1.083       .  S
C1625      C1626   1.404       .  A
C1626      H1630   1.078       .  S
C1627      C1632   1.408       .  A
C1627      C1636   1.407       .  A
C1632      C1633   1.402       .  A
C1632      H1637   1.083       .  S
C1633      C1634   1.404       .  A
C1633      H1638   1.078       .  S
C1634      C1635   1.407       .  A
C1635      C1636   1.400       .  A
C1635      H1639   1.083       .  S
C1636      H1640   1.082       .  S
C1641      C1642   1.401       .  A
C1641      C1646   1.393       .  A
C1641      H1651   1.083       .  S
C1642      C1647   1.484       .  S
C1642      C1643   1.405       .  A
C1643      C1644   1.403       .  A
C1643      H1648   1.083       .  S
C1644      C1645   1.411       .  A
C1644      H1649   1.078       .  S
C1645      C1646   1.410       .  A
C1646      H1650   1.084       .  S
C1647      C1652   1.405       .  A
C1647      C1656   1.405       .  A
C1652      C1653   1.398       .  A
C1652      H1657   1.083       .  S
C1653      C1654   1.405       .  A
C1653      H1658   1.083       .  S
C1654      C1655   1.405       .  A
C1655      C1656   1.400       .  A
C1655      H1659   1.083       .  S
C1656      H1660   1.083       .  S
C1661      C1662   1.401       .  A
C1661      C1666   1.391       .  A
C1661      H1671   1.083       .  S
C1662      C1667   1.481       .  S
C1662      C1663   1.405       .  A
C1663      C1664   1.404       .  A
C1663      H1668   1.083       .  S
C1664      C1665   1.407       .  A
C1664      H1669   1.079       .  S
C1665      C1666   1.408       .  A
C1666      H1670   1.082       .  S
C1667      C1672   1.401       .  A
C1667      C1676   1.403       .  A
C1672      C1673   1.392       .  A
C1672      H1677   1.083       .  S
C1673      C1674   1.409       .  A
C1673      H1678   1.081       .  S
C1674      C1675   1.409       .  A
C1675      C1676   1.403       .  A
C1675      H1679   1.078       .  S
C1676      H1680   1.083       .  S
C1681      C1682   1.401       .  A
C1681      C1686   1.392       .  A
C1681      H1691   1.084       .  S
C1682      C1687   1.475       .  S
C1682      C1683   1.403       .  A
C1683      C1684   1.403       .  A
C1683      H1688   1.083       .  S
C1684      C1685   1.407       .  A
C1684      H1689   1.079       .  S
C1685      C1686   1.405       .  A
C1686      H1690   1.083       .  S
C1687      C1692   1.400       .  A
C1687      C1696   1.401       .  A
C1692      C1693   1.392       .  A
C1692      H1697   1.084       .  S
C1693      C1694   1.409       .  A
C1693      H1698   1.081       .  S
C1694      C1695   1.411       .  A
C1695      C1696   1.402       .  A
C1695      H1699   1.077       .  S
C1696      H1700   1.083       .  S
C1701      C1702   1.405       .  A
C1701      C1706   1.401       .  A
C1701      H1711   1.083       .  S
C1702      C1707   1.487       .  S
C1702      C1703   1.403       .  A
C1703      C1704   1.400       .  A
C1703      H1708   1.083       .  S
C1704      C1705   1.410       .  A
C1704      H1709   1.082       .  S
C1705      C1706   1.408       .  A
C1706      H1710   1.081       .  S
C1707      C1712   1.402       .  A
C1707      C1716   1.409       .  A
C1712      C1713   1.396       .  A
C1712      H1717   1.083       .  S
C1713      C1714   1.407       .  A
C1713      H1718   1.083       .  S
C1714      C1715   1.403       .  A
C1715      C1716   1.405       .  A
C1715      H1719   1.083       .  S
C1716      H1720   1.083       .  S
C1721      C1722   1.408       .  A
C1721      C1726   1.400       .  A
C1721      H1731   1.081       .  S
C1722      C1727   1.505       .  S
C1722      C1723   1.409       .  A
C1723      C1724   1.404       .  A
C1723      H1728   1.082       .  S
C1724      C1725   1.410       .  A
C1724      H1729   1.079       .  S
C1725      C1726   1.411       .  A
C1726      H1730   1.080       .  S
C1727      C1732   1.411       .  A
C1727      C1736   1.411       .  A
C1732      C1733   1.401       .  A
C1732      H1737   1.081       .  S
C1733      C1734   1.404       .  A
C1733      H1738   1.083       .  S
C1734      C1735   1.403       .  A
C1735      C1736   1.402       .  A
C1735      H1739   1.083       .  S
C1736      H1740   1.081       .  S
C1741      C1742   1.407       .  A
C1741      C1746   1.399       .  A
C1741      H1751   1.083       .  S
C1742      C1747   1.495       .  S
C1742      C1743   1.408       .  A
C1743      C1744   1.403       .  A
C1743      H1748   1.083       .  S
C1744      C1745   1.406       .  A
C1744      H1749   1.083       .  S
C1745      C1746   1.405       .  A
C1746      H1750   1.083       .  S
C1747      C1752   1.405       .  A
C1747      C1756   1.406       .  A
C1752      C1753   1.398       .  A
C1752      H1757   1.083       .  S
C1753      C1754   1.409       .  A
C1753      H1758   1.083       .  S
C1754      C1755   1.412       .  A
C1755      C1756   1.404       .  A
C1755      H1759   1.078       .  S
C1756      H1760   1.083       .  S
C1761      C1762   1.412       .  A
C1761      C1766   1.402       .  A
C1761      H1771   1.081       .  S
C1762      C1767   1.507   1_556  S
C1762      C1763   1.412       .  A
C1763      C1764   1.403       .  A
C1763      H1768   1.081       .  S
C1764      C1765   1.403       .  A
C1764      H1769   1.083       .  S
C1765      C1766   1.404       .  A
C1766      H1770   1.083       .  S
C1767      C1772   1.410       .  A
C1767      C1776   1.411       .  A
C1772      C1773   1.400       .  A
C1772      H1777   1.081       .  S
C1773      C1774   1.408       .  A
C1773      H1778   1.082       .  S
C1774      C1775   1.408       .  A
C1775      C1776   1.405       .  A
C1775      H1779   1.081       .  S
C1776      H1780   1.082       .  S
C1781      C1782   1.407       .  A
C1781      C1786   1.403       .  A
C1781      H1791   1.083       .  S
C1782      C1787   1.495       .  S
C1782      C1783   1.407       .  A
C1783      C1784   1.402       .  A
C1783      H1788   1.083       .  S
C1784      C1785   1.406       .  A
C1784      H1789   1.082       .  S
C1785      C1786   1.408       .  A
C1786      H1790   1.083       .  S
C1787      C1792   1.406       .  A
C1787      C1796   1.407       .  A
C1792      C1793   1.403       .  A
C1792      H1797   1.083       .  S
C1793      C1794   1.409       .  A
C1793      H1798   1.083       .  S
C1794      C1795   1.404       .  A
C1795      C1796   1.402       .  A
C1795      H1799   1.078       .  S
C1796      H1800   1.083       .  S
C1801      C1802   1.408       .  A
C1801      C1806   1.398       .  A
C1801      H1811   1.083       .  S
C1802      C1807   1.494       .  S
C1802      C1803   1.408       .  A
C1803      C1804   1.403       .  A
C1803      H1808   1.083       .  S
C1804      C1805   1.406       .  A
C1804      H1809   1.083       .  S
C1805      C1806   1.405       .  A
C1806      H1810   1.083       .  S
C1807      C1812   1.404       .  A
C1807      C1816   1.406       .  A
C1812      C1813   1.398       .  A
C1812      H1817   1.083       .  S
C1813      C1814   1.412       .  A
C1813      H1818   1.076       .  S
C1814      C1815   1.410       .  A
C1815      C1816   1.402       .  A
C1815      H1819   1.083       .  S
C1816      H1820   1.082       .  S
C1821      C1822   1.410       .  A
C1821      C1826   1.401       .  A
C1821      H1831   1.082       .  S
C1822      C1827   1.503   1_554  S
C1822      C1823   1.412       .  A
C1823      C1824   1.403       .  A
C1823      H1828   1.082       .  S
C1824      C1825   1.403       .  A
C1824      H1829   1.083       .  S
C1825      C1826   1.403       .  A
C1826      H1830   1.083       .  S
C1827      C1832   1.410       .  A
C1827      C1836   1.407       .  A
C1832      C1833   1.405       .  A
C1832      H1837   1.082       .  S
C1833      C1834   1.407       .  A
C1833      H1838   1.078       .  S
C1834      C1835   1.410       .  A
C1835      C1836   1.399       .  A
C1835      H1839   1.081       .  S
C1836      H1840   1.082       .  S
C1841      C1842   1.405       .  A
C1841      C1846   1.398       .  A
C1841      H1851   1.083       .  S
C1842      C1847   1.479       .  S
C1842      C1843   1.405       .  A
C1843      C1844   1.398       .  A
C1843      H1848   1.083       .  S
C1844      C1845   1.401       .  A
C1844      H1849   1.083       .  S
C1845      C1846   1.400       .  A
C1846      H1850   1.083       .  S
C1847      C1852   1.404       .  A
C1847      C1856   1.404       .  A
C1852      C1853   1.399       .  A
C1852      H1857   1.083       .  S
C1853      C1854   1.405       .  A
C1853      H1858   1.083       .  S
C1854      C1855   1.404       .  A
C1855      C1856   1.396       .  A
C1855      H1859   1.083       .  S
C1856      H1860   1.083       .  S
C1861      C1862   1.411       .  A
C1861      C1866   1.401       .  A
C1861      H1871   1.081       .  S
C1862      C1867   1.504       .  S
C1862      C1863   1.411       .  A
C1863      C1864   1.402       .  A
C1863      H1868   1.082       .  S
C1864      C1865   1.404       .  A
C1864      H1869   1.083       .  S
C1865      C1866   1.403       .  A
C1866      H1870   1.083       .  S
C1867      C1872   1.409       .  A
C1867      C1876   1.408       .  A
C1872      C1873   1.403       .  A
C1872      H1877   1.082       .  S
C1873      C1874   1.408       .  A
C1873      H1878   1.077       .  S
C1874      C1875   1.412       .  A
C1875      C1876   1.400       .  A
C1875      H1879   1.080       .  S
C1876      H1880   1.082       .  S
C1881      C1882   1.409       .  A
C1881      C1886   1.401       .  A
C1881      H1891   1.082       .  S
C1882      C1887   1.491       .  S
C1882      C1883   1.408       .  A
C1883      C1884   1.394       .  A
C1883      H1888   1.082       .  S
C1884      C1885   1.401       .  A
C1884      H1889   1.084       .  S
C1885      C1886   1.401       .  A
C1886      H1890   1.082       .  S
C1887      C1892   1.407       .  A
C1887      C1896   1.405       .  A
C1892      C1893   1.402       .  A
C1892      H1897   1.082       .  S
C1893      C1894   1.407       .  A
C1893      H1898   1.078       .  S
C1894      C1895   1.407       .  A
C1895      C1896   1.392       .  A
C1895      H1899   1.081       .  S
C1896      H1900   1.082       .  S
C1901      C1902   1.410       .  A
C1901      C1906   1.406       .  A
C1901      H1911   1.083       .  S
C1902      C1907   1.493       .  S
C1902      C1903   1.404       .  A
C1903      C1904   1.397       .  A
C1903      H1908   1.083       .  S
C1904      C1905   1.408       .  A
C1904      H1909   1.083       .  S
C1905      C1906   1.404       .  A
C1906      H1910   1.083       .  S
C1907      C1912   1.403       .  A
C1907      C1916   1.407       .  A
C1912      C1913   1.401       .  A
C1912      H1917   1.083       .  S
C1913      C1914   1.413       .  A
C1913      H1918   1.081       .  S
C1914      C1915   1.407       .  A
C1915      C1916   1.402       .  A
C1915      H1919   1.079       .  S
C1916      H1920   1.083       .  S
C1921      C1922   1.406       .  A
C1921      C1926   1.398       .  A
C1921      H1931   1.083       .  S
C1922      C1927   1.491       .  S
C1922      C1923   1.407       .  A
C1923      C1924   1.404       .  A
C1923      H1928   1.083       .  S
C1924      C1925   1.407       .  A
C1924      H1929   1.083       .  S
C1925      C1926   1.406       .  A
C1926      H1930   1.083       .  S
C1927      C1932   1.405       .  A
C1927      C1936   1.404       .  A
C1932      C1933   1.400       .  A
C1932      H1937   1.083       .  S
C1933      C1934   1.412       .  A
C1933      H1938   1.077       .  S
C1934      C1935   1.410       .  A
C1935      C1936   1.400       .  A
C1935      H1939   1.083       .  S
C1936      H1940   1.083       .  S
C1941      C1942   1.410       .  A
C1941      C1946   1.405       .  A
C1941      H1951   1.083       .  S
C1942      C1947   1.491       .  S
C1942      C1943   1.404       .  A
C1943      C1944   1.396       .  A
C1943      H1948   1.083       .  S
C1944      C1945   1.406       .  A
C1944      H1949   1.083       .  S
C1945      C1946   1.403       .  A
C1946      H1950   1.083       .  S
C1947      C1952   1.403       .  A
C1947      C1956   1.405       .  A
C1952      C1953   1.401       .  A
C1952      H1957   1.083       .  S
C1953      C1954   1.414       .  A
C1953      H1958   1.080       .  S
C1954      C1955   1.409       .  A
C1955      C1956   1.401       .  A
C1955      H1959   1.076       .  S
C1956      H1960   1.083       .  S
C1961      C1962   1.405       .  A
C1961      C1966   1.399       .  A
C1961      H1971   1.083       .  S
C1962      C1967   1.491       .  S
C1962      C1963   1.404       .  A
C1963      C1964   1.400       .  A
C1963      H1968   1.083       .  S
C1964      C1965   1.412       .  A
C1964      H1969   1.077       .  S
C1965      C1966   1.409       .  A
C1966      H1970   1.083       .  S
C1967      C1972   1.408       .  A
C1967      C1976   1.407       .  A
C1972      C1973   1.399       .  A
C1972      H1977   1.083       .  S
C1973      C1974   1.405       .  A
C1973      H1978   1.083       .  S
C1974      C1975   1.405       .  A
C1975      C1976   1.400       .  A
C1975      H1979   1.083       .  S
C1976      H1980   1.083       .  S
C1981      C1982   1.407       .  A
C1981      C1986   1.401       .  A
C1981      H1991   1.083       .  S
C1982      C1987   1.486       .  S
C1982      C1983   1.407       .  A
C1983      C1984   1.398       .  A
C1983      H1988   1.083       .  S
C1984      C1985   1.400       .  A
C1984      H1989   1.083       .  S
C1985      C1986   1.401       .  A
C1986      H1990   1.083       .  S
C1987      C1992   1.404       .  A
C1987      C1996   1.407       .  A
C1992      C1993   1.395       .  A
C1992      H1997   1.083       .  S
C1993      C1994   1.404       .  A
C1993      H1998   1.083       .  S
C1994      C1995   1.405       .  A
C1995      C1996   1.403       .  A
C1995      H1999   1.083       .  S
C1996      H2000   1.083       .  S
C2001      C2002   1.402       .  A
C2001      C2006   1.401       .  A
C2001      H2011   1.083       .  S
C2002      C2007   1.468       .  S
C2002      C2003   1.398       .  A
C2003      C2004   1.390       .  A
C2003      H2008   1.084       .  S
C2004      C2005   1.407       .  A
C2004      H2009   1.082       .  S
C2005      C2006   1.405       .  A
C2006      H2010   1.079       .  S
C2007      C2012   1.401       .  A
C2007      C2016   1.399       .  A
C2012      C2013   1.400       .  A
C2012      H2017   1.083       .  S
C2013      C2014   1.406       .  A
C2013      H2018   1.078       .  S
C2014      C2015   1.406       .  A
C2015      C2016   1.391       .  A
C2015      H2019   1.082       .  S
C2016      H2020   1.084       .  S
C2021      C2022   1.403       .  A
C2021      C2026   1.399       .  A
C2021      H2031   1.083       .  S
C2022      C2027   1.493       .  S
C2022      C2023   1.410       .  A
C2023      C2024   1.407       .  A
C2023      H2028   1.083       .  S
C2024      C2025   1.405       .  A
C2024      H2029   1.083       .  S
C2025      C2026   1.408       .  A
C2026      H2030   1.083       .  S
C2027      C2032   1.407       .  A
C2027      C2036   1.404       .  A
C2032      C2033   1.403       .  A
C2032      H2037   1.083       .  S
C2033      C2034   1.407       .  A
C2033      H2038   1.081       .  S
C2034      C2035   1.412       .  A
C2035      C2036   1.402       .  A
C2035      H2039   1.082       .  S
C2036      H2040   1.083       .  S
C2041      C2042   1.405       .  A
C2041      C2046   1.402       .  A
C2041      H2051   1.083       .  S
C2042      C2047   1.491       .  S
C2042      C2043   1.407       .  A
C2043      C2044   1.403       .  A
C2043      H2048   1.083       .  S
C2044      C2045   1.406       .  A
C2044      H2049   1.083       .  S
C2045      C2046   1.407       .  A
C2046      H2050   1.083       .  S
C2047      C2052   1.407       .  A
C2047      C2056   1.402       .  A
C2052      C2053   1.407       .  A
C2052      H2057   1.083       .  S
C2053      C2054   1.412       .  A
C2053      H2058   1.079       .  S
C2054      C2055   1.410       .  A
C2055      C2056   1.396       .  A
C2055      H2059   1.083       .  S
C2056      H2060   1.083       .  S
C2061      C2062   1.409       .  A
C2061      C2066   1.401       .  A
C2061      H2071   1.081       .  S
C2062      C2067   1.504   1_554  S
C2062      C2063   1.409       .  A
C2063      C2064   1.403       .  A
C2063      H2068   1.082       .  S
C2064      C2065   1.409       .  A
C2064      H2069   1.080       .  S
C2065      C2066   1.408       .  A
C2066      H2070   1.081       .  S
C2067      C2072   1.411       .  A
C2067      C2076   1.412       .  A
C2072      C2073   1.402       .  A
C2072      H2077   1.082       .  S
C2073      C2074   1.403       .  A
C2073      H2078   1.083       .  S
C2074      C2075   1.403       .  A
C2075      C2076   1.402       .  A
C2075      H2079   1.083       .  S
C2076      H2080   1.081       .  S
C2081      C2082   1.410       .  A
C2081      C2086   1.399       .  A
C2081      H2091   1.081       .  S
C2082      C2087   1.510       .  S
C2082      C2083   1.411       .  A
C2083      C2084   1.406       .  A
C2083      H2088   1.081       .  S
C2084      C2085   1.410       .  A
C2084      H2089   1.080       .  S
C2085      C2086   1.407       .  A
C2086      H2090   1.081       .  S
C2087      C2092   1.412       .  A
C2087      C2096   1.413       .  A
C2092      C2093   1.401       .  A
C2092      H2097   1.081       .  S
C2093      C2094   1.402       .  A
C2093      H2098   1.083       .  S
C2094      C2095   1.405       .  A
C2095      C2096   1.405       .  A
C2095      H2099   1.083       .  S
C2096      H2100   1.081       .  S
C2101      C2102   1.410       .  A
C2101      C2106   1.406       .  A
C2101      H2111   1.083       .  S
C2102      C2107   1.490       .  S
C2102      C2103   1.404       .  A
C2103      C2104   1.396       .  A
C2103      H2108   1.083       .  S
C2104      C2105   1.406       .  A
C2104      H2109   1.083       .  S
C2105      C2106   1.403       .  A
C2106      H2110   1.083       .  S
C2107      C2112   1.405       .  A
C2107      C2116   1.406       .  A
C2112      C2113   1.402       .  A
C2112      H2117   1.083       .  S
C2113      C2114   1.410       .  A
C2113      H2118   1.082       .  S
C2114      C2115   1.407       .  A
C2115      C2116   1.400       .  A
C2115      H2119   1.081       .  S
C2116      H2120   1.083       .  S
C2121      C2122   1.407       .  A
C2121      C2126   1.401       .  A
C2121      H2131   1.083       .  S
C2122      C2127   1.496       .  S
C2122      C2123   1.406       .  A
C2123      C2124   1.398       .  A
C2123      H2128   1.082       .  S
C2124      C2125   1.409       .  A
C2124      H2129   1.083       .  S
C2125      C2126   1.411       .  A
C2126      H2130   1.078       .  S
C2127      C2132   1.408       .  A
C2127      C2136   1.409       .  A
C2132      C2133   1.399       .  A
C2132      H2137   1.082       .  S
C2133      C2134   1.405       .  A
C2133      H2138   1.083       .  S
C2134      C2135   1.405       .  A
C2135      C2136   1.401       .  A
C2135      H2139   1.083       .  S
C2136      H2140   1.082       .  S
C2141      C2142   1.411       .  A
C2141      C2146   1.403       .  A
C2141      H2151   1.082       .  S
C2142      C2147   1.507       .  S
C2142      C2143   1.410       .  A
C2143      C2144   1.403       .  A
C2143      H2148   1.082       .  S
C2144      C2145   1.408       .  A
C2144      H2149   1.082       .  S
C2145      C2146   1.406       .  A
C2146      H2150   1.082       .  S
C2147      C2152   1.411   1_556  A
C2147      C2156   1.412   1_556  A
C2152      C2153   1.401       .  A
C2152      H2157   1.081       .  S
C2153      C2154   1.401       .  A
C2153      H2158   1.081       .  S
C2154      C2155   1.404       .  A
C2155      C2156   1.405       .  A
C2155      H2159   1.083       .  S
C2156      H2160   1.082       .  S
C2161      C2162   1.407       .  A
C2161      C2166   1.402       .  A
C2161      H2171   1.082       .  S
C2162      C2167   1.492       .  S
C2162      C2163   1.406       .  A
C2163      C2164   1.394       .  A
C2163      H2168   1.082       .  S
C2164      C2165   1.406       .  A
C2164      H2169   1.082       .  S
C2165      C2166   1.407       .  A
C2166      H2170   1.080       .  S
C2167      C2172   1.410       .  A
C2167      C2176   1.408       .  A
C2172      C2173   1.402       .  A
C2172      H2177   1.082       .  S
C2173      C2174   1.401       .  A
C2173      H2178   1.083       .  S
C2174      C2175   1.399       .  A
C2175      C2176   1.394       .  A
C2175      H2179   1.084       .  S
C2176      H2180   1.082       .  S
C2181      C2182   1.412       .  A
C2181      C2186   1.401       .  A
C2181      H2191   1.081       .  S
C2182      C2187   1.505       .  S
C2182      C2183   1.411       .  A
C2183      C2184   1.402       .  A
C2183      H2188   1.082       .  S
C2184      C2185   1.404       .  A
C2184      H2189   1.083       .  S
C2185      C2186   1.401       .  A
C2186      H2190   1.083       .  S
C2187      C2192   1.407       .  A
C2187      C2196   1.411       .  A
C2192      C2193   1.397       .  A
C2192      H2197   1.081       .  S
C2193      C2194   1.409       .  A
C2193      H2198   1.081       .  S
C2194      C2195   1.408       .  A
C2195      C2196   1.406       .  A
C2195      H2199   1.078       .  S
C2196      H2200   1.082       .  S
C2201      C2202   1.408       .  A
C2201      C2206   1.397       .  A
C2201      H2211   1.082       .  S
C2202      C2207   1.487       .  S
C2202      C2203   1.408       .  A
C2203      C2204   1.396       .  A
C2203      H2208   1.082       .  S
C2204      C2205   1.400       .  A
C2204      H2209   1.084       .  S
C2205      C2206   1.398       .  A
C2206      H2210   1.082       .  S
C2207      C2212   1.408       .  A
C2207      C2216   1.406       .  A
C2212      C2213   1.399       .  A
C2212      H2217   1.082       .  S
C2213      C2214   1.403       .  A
C2213      H2218   1.083       .  S
C2214      C2215   1.404       .  A
C2215      C2216   1.394       .  A
C2215      H2219   1.083       .  S
C2216      H2220   1.082       .  S
C2221      C2222   1.407       .  A
C2221      C2226   1.401       .  A
C2221      H2231   1.083       .  S
C2222      C2227   1.492       .  S
C2222      C2223   1.407       .  A
C2223      C2224   1.400       .  A
C2223      H2228   1.083       .  S
C2224      C2225   1.407       .  A
C2224      H2229   1.083       .  S
C2225      C2226   1.406       .  A
C2226      H2230   1.082       .  S
C2227      C2232   1.408       .  A
C2227      C2236   1.405       .  A
C2232      C2233   1.402       .  A
C2232      H2237   1.083       .  S
C2233      C2234   1.405       .  A
C2233      H2238   1.081       .  S
C2234      C2235   1.408       .  A
C2235      C2236   1.399       .  A
C2235      H2239   1.082       .  S
C2236      H2240   1.083       .  S
C2241      C2242   1.406       .  A
C2241      C2246   1.400       .  A
C2241      H2251   1.083       .  S
C2242      C2247   1.488       .  S
C2242      C2243   1.405       .  A
C2243      C2244   1.399       .  A
C2243      H2248   1.083       .  S
C2244      C2245   1.406       .  A
C2244      H2249   1.083       .  S
C2245      C2246   1.405       .  A
C2246      H2250   1.083       .  S
C2247      C2252   1.403       .  A
C2247      C2256   1.404       .  A
C2252      C2253   1.401       .  A
C2252      H2257   1.083       .  S
C2253      C2254   1.412       .  A
C2253      H2258   1.076       .  S
C2254      C2255   1.410       .  A
C2255      C2256   1.398       .  A
C2255      H2259   1.083       .  S
C2256      H2260   1.083       .  S
C2261      C2262   1.409       .  A
C2261      C2266   1.402       .  A
C2261      H2271   1.082       .  S
C2262      C2267   1.499   1_655  S
C2262      C2263   1.409       .  A
C2263      C2264   1.402       .  A
C2263      H2268   1.082       .  S
C2264      C2265   1.405       .  A
C2264      H2269   1.083       .  S
C2265      C2266   1.406       .  A
C2266      H2270   1.083       .  S
C2267      C2272   1.408       .  A
C2267      C2276   1.410       .  A
C2272      C2273   1.400       .  A
C2272      H2277   1.082       .  S
C2273      C2274   1.406       .  A
C2273      H2278   1.083       .  S
C2274      C2275   1.405       .  A
C2275      C2276   1.403       .  A
C2275      H2279   1.083       .  S
C2276      H2280   1.082       .  S
C2281      C2282   1.410       .  A
C2281      C2286   1.404       .  A
C2281      H2291   1.082       .  S
C2282      C2287   1.498       .  S
C2282      C2283   1.408       .  A
C2283      C2284   1.398       .  A
C2283      H2288   1.082       .  S
C2284      C2285   1.404       .  A
C2284      H2289   1.083       .  S
C2285      C2286   1.406       .  A
C2286      H2290   1.083       .  S
C2287      C2292   1.406       .  A
C2287      C2296   1.408       .  A
C2292      C2293   1.400       .  A
C2292      H2297   1.082       .  S
C2293      C2294   1.410       .  A
C2293      H2298   1.083       .  S
C2294      C2295   1.410       .  A
C2295      C2296   1.401       .  A
C2295      H2299   1.077       .  S
C2296      H2300   1.082       .  S
C2301      C2302   1.408       .  A
C2301      C2306   1.403       .  A
C2301      H2311   1.082       .  S
C2302      C2307   1.494       .  S
C2302      C2303   1.406       .  A
C2303      C2304   1.396       .  A
C2303      H2308   1.083       .  S
C2304      C2305   1.407       .  A
C2304      H2309   1.082       .  S
C2305      C2306   1.405       .  A
C2306      H2310   1.081       .  S
C2307      C2312   1.409       .  A
C2307      C2316   1.406       .  A
C2312      C2313   1.404       .  A
C2312      H2317   1.083       .  S
C2313      C2314   1.406       .  A
C2313      H2318   1.083       .  S
C2314      C2315   1.405       .  A
C2315      C2316   1.396       .  A
C2315      H2319   1.083       .  S
C2316      H2320   1.082       .  S
C2321      C2322   1.408       .  A
C2321      C2326   1.403       .  A
C2321      H2331   1.082       .  S
C2322      C2327   1.497   1_655  S
C2322      C2323   1.409       .  A
C2323      C2324   1.400       .  A
C2323      H2328   1.082       .  S
C2324      C2325   1.405       .  A
C2324      H2329   1.083       .  S
C2325      C2326   1.406       .  A
C2326      H2330   1.083       .  S
C2327      C2332   1.409       .  A
C2327      C2336   1.408       .  A
C2332      C2333   1.403       .  A
C2332      H2337   1.082       .  S
C2333      C2334   1.406       .  A
C2333      H2338   1.083       .  S
C2334      C2335   1.405       .  A
C2335      C2336   1.400       .  A
C2335      H2339   1.083       .  S
C2336      H2340   1.082       .  S
C2341      C2342   1.405       .  A
C2341      C2346   1.404       .  A
C2341      H2351   1.083       .  S
C2342      C2347   1.487       .  S
C2342      C2343   1.402       .  A
C2343      C2344   1.394       .  A
C2343      H2348   1.083       .  S
C2344      C2345   1.409       .  A
C2344      H2349   1.083       .  S
C2345      C2346   1.412       .  A
C2346      H2350   1.077       .  S
C2347      C2352   1.407       .  A
C2347      C2356   1.405       .  A
C2352      C2353   1.402       .  A
C2352      H2357   1.083       .  S
C2353      C2354   1.407       .  A
C2353      H2358   1.083       .  S
C2354      C2355   1.405       .  A
C2355      C2356   1.397       .  A
C2355      H2359   1.083       .  S
C2356      H2360   1.083       .  S
C2361      C2362   1.406       .  A
C2361      C2366   1.399       .  A
C2361      H2371   1.083       .  S
C2362      C2367   1.488       .  S
C2362      C2363   1.406       .  A
C2363      C2364   1.401       .  A
C2363      H2368   1.083       .  S
C2364      C2365   1.405       .  A
C2364      H2369   1.083       .  S
C2365      C2366   1.406       .  A
C2366      H2370   1.083       .  S
C2367      C2372   1.406       .  A
C2367      C2376   1.406       .  A
C2372      C2373   1.399       .  A
C2372      H2377   1.083       .  S
C2373      C2374   1.406       .  A
C2373      H2378   1.083       .  S
C2374      C2375   1.405       .  A
C2375      C2376   1.401       .  A
C2375      H2379   1.083       .  S
C2376      H2380   1.083       .  S
C2381      C2382   1.410       .  A
C2381      C2386   1.403       .  A
C2381      H2391   1.082       .  S
C2382      C2387   1.497       .  S
C2382      C2383   1.408       .  A
C2383      C2384   1.397       .  A
C2383      H2388   1.082       .  S
C2384      C2385   1.404       .  A
C2384      H2389   1.083       .  S
C2385      C2386   1.405       .  A
C2386      H2390   1.083       .  S
C2387      C2392   1.406       .  A
C2387      C2396   1.408       .  A
C2392      C2393   1.398       .  A
C2392      H2397   1.082       .  S
C2393      C2394   1.409       .  A
C2393      H2398   1.083       .  S
C2394      C2395   1.409       .  A
C2395      C2396   1.401       .  A
C2395      H2399   1.078       .  S
C2396      H2400   1.082       .  S
C2401      C2402   1.405       .  A
C2401      C2406   1.395       .  A
C2401      H2411   1.083       .  S
C2402      C2407   1.491       .  S
C2402      C2403   1.408       .  A
C2403      C2404   1.404       .  A
C2403      H2408   1.083       .  S
C2404      C2405   1.405       .  A
C2404      H2409   1.083       .  S
C2405      C2406   1.405       .  A
C2406      H2410   1.083       .  S
C2407      C2412   1.407       .  A
C2407      C2416   1.407       .  A
C2412      C2413   1.397       .  A
C2412      H2417   1.083       .  S
C2413      C2414   1.405       .  A
C2413      H2418   1.083       .  S
C2414      C2415   1.405       .  A
C2415      C2416   1.402       .  A
C2415      H2419   1.083       .  S
C2416      H2420   1.083       .  S
C2421      C2422   1.408       .  A
C2421      C2426   1.399       .  A
C2421      H2431   1.082       .  S
C2422      C2427   1.495   1_565  S
C2422      C2423   1.409       .  A
C2423      C2424   1.402       .  A
C2423      H2428   1.082       .  S
C2424      C2425   1.405       .  A
C2424      H2429   1.083       .  S
C2425      C2426   1.404       .  A
C2426      H2430   1.083       .  S
C2427      C2432   1.408       .  A
C2427      C2436   1.409       .  A
C2432      C2433   1.397       .  A
C2432      H2437   1.082       .  S
C2433      C2434   1.404       .  A
C2433      H2438   1.083       .  S
C2434      C2435   1.406       .  A
C2435      C2436   1.403       .  A
C2435      H2439   1.083       .  S
C2436      H2440   1.082       .  S
C2441      C2442   1.406       .  A
C2441      C2446   1.401       .  A
C2441      H2451   1.083       .  S
C2442      C2447   1.483       .  S
C2442      C2443   1.401       .  A
C2443      C2444   1.391       .  A
C2443      H2448   1.083       .  S
C2444      C2445   1.409       .  A
C2444      H2449   1.084       .  S
C2445      C2446   1.409       .  A
C2446      H2450   1.078       .  S
C2447      C2452   1.405       .  A
C2447      C2456   1.406       .  A
C2452      C2453   1.397       .  A
C2452      H2457   1.083       .  S
C2453      C2454   1.404       .  A
C2453      H2458   1.083       .  S
C2454      C2455   1.404       .  A
C2455      C2456   1.397       .  A
C2455      H2459   1.083       .  S
C2456      H2460   1.083       .  S
C2461      C2462   1.407       .  A
C2461      C2466   1.405       .  A
C2461      H2471   1.083       .  S
C2462      C2467   1.487       .  S
C2462      C2463   1.405       .  A
C2463      C2464   1.394       .  A
C2463      H2468   1.083       .  S
C2464      C2465   1.404       .  A
C2464      H2469   1.083       .  S
C2465      C2466   1.407       .  A
C2466      H2470   1.083       .  S
C2467      C2472   1.408       .  A
C2467      C2476   1.404       .  A
C2472      C2473   1.405       .  A
C2472      H2477   1.083       .  S
C2473      C2474   1.407       .  A
C2473      H2478   1.083       .  S
C2474      C2475   1.404       .  A
C2475      C2476   1.394       .  A
C2475      H2479   1.083       .  S
C2476      H2480   1.083       .  S
C2481      C2482   1.407       .  A
C2481      C2486   1.396       .  A
C2481      H2491   1.083       .  S
C2482      C2487   1.490       .  S
C2482      C2483   1.407       .  A
C2483      C2484   1.402       .  A
C2483      H2488   1.083       .  S
C2484      C2485   1.405       .  A
C2484      H2489   1.083       .  S
C2485      C2486   1.404       .  A
C2486      H2490   1.083       .  S
C2487      C2492   1.405       .  A
C2487      C2496   1.408       .  A
C2492      C2493   1.395       .  A
C2492      H2497   1.083       .  S
C2493      C2494   1.405       .  A
C2493      H2498   1.083       .  S
C2494      C2495   1.406       .  A
C2495      C2496   1.404       .  A
C2495      H2499   1.083       .  S
C2496      H2500   1.083       .  S
C2501      C2502   1.407       .  A
C2501      C2506   1.402       .  A
C2501      H2511   1.083       .  S
C2502      C2507   1.486   1_565  S
C2502      C2503   1.405       .  A
C2503      C2504   1.395       .  A
C2503      H2508   1.083       .  S
C2504      C2505   1.404       .  A
C2504      H2509   1.083       .  S
C2505      C2506   1.406       .  A
C2506      H2510   1.083       .  S
C2507      C2512   1.406       .  A
C2507      C2516   1.406       .  A
C2512      C2513   1.400       .  A
C2512      H2517   1.083       .  S
C2513      C2514   1.405       .  A
C2513      H2518   1.083       .  S
C2514      C2515   1.405       .  A
C2515      C2516   1.397       .  A
C2515      H2519   1.083       .  S
C2516      H2520   1.083       .  S
C2521      C2522   1.408       .  A
C2521      C2526   1.403       .  A
C2521      H2531   1.082       .  S
C2522      C2527   1.496       .  S
C2522      C2523   1.404       .  A
C2523      C2524   1.395       .  A
C2523      H2528   1.082       .  S
C2524      C2525   1.411       .  A
C2524      H2529   1.079       .  S
C2525      C2526   1.409       .  A
C2526      H2530   1.079       .  S
C2527      C2532   1.408       .  A
C2527      C2536   1.410       .  A
C2532      C2533   1.400       .  A
C2532      H2537   1.082       .  S
C2533      C2534   1.406       .  A
C2533      H2538   1.083       .  S
C2534      C2535   1.403       .  A
C2535      C2536   1.398       .  A
C2535      H2539   1.083       .  S
C2536      H2540   1.082       .  S
C2541      C2542   1.406       .  A
C2541      C2546   1.395       .  A
C2541      H2551   1.083       .  S
C2542      C2547   1.486   1_554  S
C2542      C2543   1.406       .  A
C2543      C2544   1.400       .  A
C2543      H2548   1.083       .  S
C2544      C2545   1.405       .  A
C2544      H2549   1.083       .  S
C2545      C2546   1.403       .  A
C2546      H2550   1.083       .  S
C2547      C2552   1.406       .  A
C2547      C2556   1.407       .  A
C2552      C2553   1.394       .  A
C2552      H2557   1.083       .  S
C2553      C2554   1.404       .  A
C2553      H2558   1.083       .  S
C2554      C2555   1.405       .  A
C2555      C2556   1.400       .  A
C2555      H2559   1.083       .  S
C2556      H2560   1.083       .  S
C2561      C2562   1.406   1_556  A
C2561      C2566   1.398       .  A
C2561      H2571   1.083   1_556  S
C2562      C2567   1.487       .  S
C2562      C2563   1.406   1_554  A
C2563      C2564   1.399       .  A
C2563      H2568   1.083   1_556  S
C2564      C2565   1.405       .  A
C2564      H2569   1.083       .  S
C2565      C2566   1.405       .  A
C2566      H2570   1.083       .  S
C2567      C2572   1.405       .  A
C2567      C2576   1.407       .  A
C2572      C2573   1.398       .  A
C2572      H2577   1.083       .  S
C2573      C2574   1.406       .  A
C2573      H2578   1.083       .  S
C2574      C2575   1.404       .  A
C2575      C2576   1.400       .  A
C2575      H2579   1.083       .  S
C2576      H2580   1.083       .  S
C2581      C2582   1.409       .  A
C2581      C2586   1.402       .  A
C2581      H2591   1.083       .  S
C2582      C2587   1.496   1_565  S
C2582      C2583   1.408       .  A
C2583      C2584   1.401       .  A
C2583      H2588   1.082       .  S
C2584      C2585   1.405       .  A
C2584      H2589   1.083       .  S
C2585      C2586   1.406       .  A
C2586      H2590   1.083       .  S
C2587      C2592   1.407       .  A
C2587      C2596   1.409       .  A
C2592      C2593   1.400       .  A
C2592      H2597   1.083       .  S
C2593      C2594   1.406       .  A
C2593      H2598   1.083       .  S
C2594      C2595   1.405       .  A
C2595      C2596   1.403       .  A
C2595      H2599   1.083       .  S
C2596      H2600   1.082       .  S
C2601      C2602   1.409       .  A
C2601      C2606   1.400       .  A
C2601      H2611   1.082       .  S
C2602      C2607   1.497       .  S
C2602      C2603   1.408       .  A
C2603      C2604   1.403       .  A
C2603      H2608   1.082       .  S
C2604      C2605   1.406       .  A
C2604      H2609   1.083       .  S
C2605      C2606   1.405       .  A
C2606      H2610   1.083       .  S
C2607      C2612   1.407       .  A
C2607      C2616   1.405       .  A
C2612      C2613   1.401       .  A
C2612      H2617   1.082       .  S
C2613      C2614   1.410       .  A
C2613      H2618   1.083       .  S
C2614      C2615   1.412       .  A
C2615      C2616   1.399       .  A
C2615      H2619   1.076       .  S
C2616      H2620   1.083       .  S
C2621      C2622   1.407       .  A
C2621      C2626   1.397       .  A
C2621      H2631   1.083       .  S
C2622      C2627   1.491       .  S
C2622      C2623   1.408       .  A
C2623      C2624   1.400       .  A
C2623      H2628   1.082       .  S
C2624      C2625   1.405       .  A
C2624      H2629   1.083       .  S
C2625      C2626   1.405       .  A
C2626      H2630   1.083       .  S
C2627      C2632   1.407   1_556  A
C2627      C2636   1.407   1_556  A
C2632      C2633   1.397       .  A
C2632      H2637   1.082   1_554  S
C2633      C2634   1.404       .  A
C2633      H2638   1.083       .  S
C2634      C2635   1.405       .  A
C2635      C2636   1.400       .  A
C2635      H2639   1.083       .  S
C2636      H2640   1.082   1_554  S
C2641      C2642   1.407       .  A
C2641      C2646   1.397       .  A
C2641      H2651   1.082       .  S
C2642      C2647   1.496       .  S
C2642      C2643   1.410       .  A
C2643      C2644   1.402       .  A
C2643      H2648   1.082       .  S
C2644      C2645   1.405       .  A
C2644      H2649   1.083       .  S
C2645      C2646   1.404       .  A
C2646      H2650   1.083       .  S
C2647      C2652   1.409       .  A
C2647      C2656   1.405       .  A
C2652      C2653   1.401       .  A
C2652      H2657   1.082       .  S
C2653      C2654   1.408       .  A
C2653      H2658   1.077       .  S
C2654      C2655   1.410       .  A
C2655      C2656   1.397       .  A
C2655      H2659   1.083       .  S
C2656      H2660   1.082       .  S
C2661      C2662   1.405   1_554  A
C2661      C2666   1.396       .  A
C2661      H2671   1.083   1_554  S
C2662      C2667   1.484       .  S
C2662      C2663   1.406   1_556  A
C2663      C2664   1.399       .  A
C2663      H2668   1.083       .  S
C2664      C2665   1.404       .  A
C2664      H2669   1.083       .  S
C2665      C2666   1.405       .  A
C2666      H2670   1.083       .  S
C2667      C2672   1.405       .  A
C2667      C2676   1.406       .  A
C2672      C2673   1.397       .  A
C2672      H2677   1.083       .  S
C2673      C2674   1.405       .  A
C2673      H2678   1.083       .  S
C2674      C2675   1.404       .  A
C2675      C2676   1.398       .  A
C2675      H2679   1.083       .  S
C2676      H2680   1.083       .  S
C2681      C2682   1.409       .  A
C2681      C2686   1.404       .  A
C2681      H2691   1.082       .  S
C2682      C2687   1.495       .  S
C2682      C2683   1.408       .  A
C2683      C2684   1.395       .  A
C2683      H2688   1.082       .  S
C2684      C2685   1.404       .  A
C2684      H2689   1.083       .  S
C2685      C2686   1.405       .  A
C2686      H2690   1.083       .  S
C2687      C2692   1.410       .  A
C2687      C2696   1.406       .  A
C2692      C2693   1.406       .  A
C2692      H2697   1.082       .  S
C2693      C2694   1.406       .  A
C2693      H2698   1.083       .  S
C2694      C2695   1.405       .  A
C2695      C2696   1.394       .  A
C2695      H2699   1.083       .  S
C2696      H2700   1.082       .  S
C2701      C2702   1.409       .  A
C2701      C2706   1.405       .  A
C2701      H2711   1.082       .  S
C2702      C2707   1.498   1_455  S
C2702      C2703   1.408       .  A
C2703      C2704   1.399       .  A
C2703      H2708   1.082       .  S
C2704      C2705   1.405       .  A
C2704      H2709   1.083       .  S
C2705      C2706   1.407       .  A
C2706      H2710   1.083       .  S
C2707      C2712   1.409       .  A
C2707      C2716   1.408       .  A
C2712      C2713   1.404       .  A
C2712      H2717   1.082       .  S
C2713      C2714   1.407       .  A
C2713      H2718   1.083       .  S
C2714      C2715   1.404       .  A
C2715      C2716   1.400       .  A
C2715      H2719   1.083       .  S
C2716      H2720   1.082       .  S
C2721      C2722   1.406       .  A
C2721      C2726   1.400       .  A
C2721      H2731   1.083       .  S
C2722      C2727   1.490       .  S
C2722      C2723   1.407       .  A
C2723      C2724   1.400       .  A
C2723      H2728   1.083       .  S
C2724      C2725   1.406       .  A
C2724      H2729   1.083       .  S
C2725      C2726   1.405       .  A
C2726      H2730   1.083       .  S
C2727      C2732   1.403       .  A
C2727      C2736   1.407       .  A
C2732      C2733   1.396       .  A
C2732      H2737   1.083       .  S
C2733      C2734   1.410       .  A
C2733      H2738   1.083       .  S
C2734      C2735   1.410       .  A
C2735      C2736   1.404       .  A
C2735      H2739   1.078       .  S
C2736      H2740   1.083       .  S
C2741      C2742   1.406       .  A
C2741      C2746   1.398       .  A
C2741      H2751   1.083       .  S
C2742      C2747   1.489       .  S
C2742      C2743   1.407       .  A
C2743      C2744   1.401       .  A
C2743      H2748   1.083       .  S
C2744      C2745   1.406       .  A
C2744      H2749   1.083       .  S
C2745      C2746   1.405       .  A
C2746      H2750   1.083       .  S
C2747      C2752   1.406   1_556  A
C2747      C2756   1.407   1_556  A
C2752      C2753   1.398       .  A
C2752      H2757   1.083   1_554  S
C2753      C2754   1.405       .  A
C2753      H2758   1.083       .  S
C2754      C2755   1.406       .  A
C2755      C2756   1.401       .  A
C2755      H2759   1.083       .  S
C2756      H2760   1.083       .  S
C2761      C2762   1.404       .  A
C2761      C2766   1.396       .  A
C2761      H2771   1.083       .  S
C2762      C2767   1.486       .  S
C2762      C2763   1.406       .  A
C2763      C2764   1.403       .  A
C2763      H2768   1.083       .  S
C2764      C2765   1.406       .  A
C2764      H2769   1.083       .  S
C2765      C2766   1.405       .  A
C2766      H2770   1.083       .  S
C2767      C2772   1.405       .  A
C2767      C2776   1.406       .  A
C2772      C2773   1.396       .  A
C2772      H2777   1.083       .  S
C2773      C2774   1.404       .  A
C2773      H2778   1.083       .  S
C2774      C2775   1.407       .  A
C2775      C2776   1.404       .  A
C2775      H2779   1.083       .  S
C2776      H2780   1.083       .  S
C2781      C2782   1.406       .  A
C2781      C2786   1.402       .  A
C2781      H2791   1.083       .  S
C2782      C2787   1.491       .  S
C2782      C2783   1.404       .  A
C2783      C2784   1.397       .  A
C2783      H2788   1.083       .  S
C2784      C2785   1.410       .  A
C2784      H2789   1.083       .  S
C2785      C2786   1.411       .  A
C2786      H2790   1.077       .  S
C2787      C2792   1.407       .  A
C2787      C2796   1.408       .  A
C2792      C2793   1.399       .  A
C2792      H2797   1.083       .  S
C2793      C2794   1.405       .  A
C2793      H2798   1.083       .  S
C2794      C2795   1.405       .  A
C2795      C2796   1.400       .  A
C2795      H2799   1.083       .  S
C2796      H2800   1.083       .  S
C2801      C2802   1.407       .  A
C2801      C2806   1.399       .  A
C2801      H2811   1.082       .  S
C2802      C2807   1.491   1_554  S
C2802      C2803   1.408       .  A
C2803      C2804   1.399       .  A
C2803      H2808   1.083       .  S
C2804      C2805   1.405       .  A
C2804      H2809   1.083       .  S
C2805      C2806   1.404       .  A
C2806      H2810   1.083       .  S
C2807      C2812   1.408       .  A
C2807      C2816   1.406       .  A
C2812      C2813   1.400       .  A
C2812      H2817   1.083       .  S
C2813      C2814   1.404       .  A
C2813      H2818   1.083       .  S
C2814      C2815   1.405       .  A
C2815      C2816   1.398       .  A
C2815      H2819   1.083       .  S
C2816      H2820   1.082       .  S
C2821      C2822   1.408       .  A
C2821      C2826   1.397       .  A
C2821      H2831   1.082       .  S
C2822      C2827   1.498   1_565  S
C2822      C2823   1.410       .  A
C2823      C2824   1.403       .  A
C2823      H2828   1.082       .  S
C2824      C2825   1.406       .  A
C2824      H2829   1.083       .  S
C2825      C2826   1.403       .  A
C2826      H2830   1.083       .  S
C2827      C2832   1.409       .  A
C2827      C2836   1.409       .  A
C2832      C2833   1.400       .  A
C2832      H2837   1.082       .  S
C2833      C2834   1.404       .  A
C2833      H2838   1.083       .  S
C2834      C2835   1.405       .  A
C2835      C2836   1.401       .  A
C2835      H2839   1.083       .  S
C2836      H2840   1.082       .  S
C2841      C2842   1.407       .  A
C2841      C2846   1.400       .  A
C2841      H2851   1.083       .  S
C2842      C2847   1.487       .  S
C2842      C2843   1.406       .  A
C2843      C2844   1.396       .  A
C2843      H2848   1.083       .  S
C2844      C2845   1.404       .  A
C2844      H2849   1.083       .  S
C2845      C2846   1.405       .  A
C2846      H2850   1.083       .  S
C2847      C2852   1.403       .  A
C2847      C2856   1.406       .  A
C2852      C2853   1.393       .  A
C2852      H2857   1.083       .  S
C2853      C2854   1.408       .  A
C2853      H2858   1.083       .  S
C2854      C2855   1.411       .  A
C2855      C2856   1.402       .  A
C2855      H2859   1.077       .  S
C2856      H2860   1.083       .  S
C2861      C2862   1.404       .  A
C2861      C2866   1.397       .  A
C2861      H2871   1.083       .  S
C2862      C2867   1.484   1_554  S
C2862      C2863   1.406       .  A
C2863      C2864   1.400       .  A
C2863      H2868   1.083       .  S
C2864      C2865   1.405       .  A
C2864      H2869   1.083       .  S
C2865      C2866   1.405       .  A
C2866      H2870   1.083       .  S
C2867      C2872   1.406       .  A
C2867      C2876   1.405       .  A
C2872      C2873   1.398       .  A
C2872      H2877   1.083       .  S
C2873      C2874   1.405       .  A
C2873      H2878   1.083       .  S
C2874      C2875   1.405       .  A
C2875      C2876   1.399       .  A
C2875      H2879   1.083       .  S
C2876      H2880   1.083       .  S
C2881      C2882   1.405       .  A
C2881      C2886   1.400       .  A
C2881      H2891   1.083       .  S
C2882      C2887   1.482       .  S
C2882      C2883   1.404       .  A
C2883      C2884   1.396       .  A
C2883      H2888   1.083       .  S
C2884      C2885   1.404       .  A
C2884      H2889   1.083       .  S
C2885      C2886   1.406       .  A
C2886      H2890   1.083       .  S
C2887      C2892   1.405       .  A
C2887      C2896   1.404       .  A
C2892      C2893   1.401       .  A
C2892      H2897   1.083       .  S
C2893      C2894   1.406       .  A
C2893      H2898   1.083       .  S
C2894      C2895   1.404       .  A
C2895      C2896   1.394       .  A
C2895      H2899   1.083       .  S
C2896      H2900   1.083       .  S
C2901      C2902   1.407       .  A
C2901      C2906   1.402       .  A
C2901      H2911   1.083       .  S
C2902      C2907   1.491       .  S
C2902      C2903   1.407       .  A
C2903      C2904   1.398       .  A
C2903      H2908   1.083       .  S
C2904      C2905   1.404       .  A
C2904      H2909   1.083       .  S
C2905      C2906   1.406       .  A
C2906      H2910   1.083       .  S
C2907      C2912   1.409   1_554  A
C2907      C2916   1.406   1_554  A
C2912      C2913   1.403       .  A
C2912      H2917   1.083   1_556  S
C2913      C2914   1.406       .  A
C2913      H2918   1.083       .  S
C2914      C2915   1.404       .  A
C2915      C2916   1.395       .  A
C2915      H2919   1.083       .  S
C2916      H2920   1.083       .  S
C2921      C2922   1.407       .  A
C2921      C2926   1.399       .  A
C2921      H2931   1.082       .  S
C2922      C2927   1.490       .  S
C2922      C2923   1.407       .  A
C2923      C2924   1.399       .  A
C2923      H2928   1.083       .  S
C2924      C2925   1.406       .  A
C2924      H2929   1.083       .  S
C2925      C2926   1.404       .  A
C2926      H2930   1.083       .  S
C2927      C2932   1.407       .  A
C2927      C2936   1.407       .  A
C2932      C2933   1.401       .  A
C2932      H2937   1.083       .  S
C2933      C2934   1.406       .  A
C2933      H2938   1.083       .  S
C2934      C2935   1.404       .  A
C2935      C2936   1.397       .  A
C2935      H2939   1.083       .  S
C2936      H2940   1.083       .  S
C2941      C2942   1.407       .  A
C2941      C2946   1.399       .  A
C2941      H2951   1.083       .  S
C2942      C2947   1.491   1_655  S
C2942      C2943   1.407       .  A
C2943      C2944   1.400       .  A
C2943      H2948   1.083       .  S
C2944      C2945   1.405       .  A
C2944      H2949   1.083       .  S
C2945      C2946   1.405       .  A
C2946      H2950   1.083       .  S
C2947      C2952   1.407       .  A
C2947      C2956   1.407       .  A
C2952      C2953   1.397       .  A
C2952      H2957   1.083       .  S
C2953      C2954   1.404       .  A
C2953      H2958   1.083       .  S
C2954      C2955   1.406       .  A
C2955      C2956   1.402       .  A
C2955      H2959   1.083       .  S
C2956      H2960   1.083       .  S
C2961      C2962   1.402       .  A
C2961      C2966   1.395       .  A
C2961      H2971   1.083       .  S
C2962      C2967   1.482       .  S
C2962      C2963   1.403       .  A
C2963      C2964   1.400       .  A
C2963      H2968   1.083       .  S
C2964      C2965   1.413       .  A
C2964      H2969   1.077       .  S
C2965      C2966   1.409       .  A
C2966      H2970   1.083       .  S
C2967      C2972   1.404       .  A
C2967      C2976   1.405       .  A
C2972      C2973   1.397       .  A
C2972      H2977   1.083       .  S
C2973      C2974   1.405       .  A
C2973      H2978   1.083       .  S
C2974      C2975   1.405       .  A
C2975      C2976   1.399       .  A
C2975      H2979   1.083       .  S
C2976      H2980   1.083       .  S
C2981      C2982   1.404       .  A
C2981      C2986   1.398       .  A
C2981      H2991   1.083       .  S
C2982      C2987   1.490       .  S
C2982      C2983   1.405       .  A
C2983      C2984   1.402       .  A
C2983      H2988   1.083       .  S
C2984      C2985   1.412       .  A
C2984      H2989   1.077       .  S
C2985      C2986   1.411       .  A
C2986      H2990   1.083       .  S
C2987      C2992   1.406       .  A
C2987      C2996   1.407       .  A
C2992      C2993   1.401       .  A
C2992      H2997   1.083       .  S
C2993      C2994   1.406       .  A
C2993      H2998   1.083       .  S
C2994      C2995   1.405       .  A
C2995      C2996   1.400       .  A
C2995      H2999   1.083       .  S
C2996      H3000   1.083       .  S
C3001      C3002   1.408       .  A
C3001      C3006   1.405       .  A
C3001      H3011   1.083       .  S
C3002      C3007   1.487       .  S
C3002      C3003   1.402       .  A
C3003      C3004   1.397       .  A
C3003      H3008   1.083       .  S
C3004      C3005   1.408       .  A
C3004      H3009   1.083       .  S
C3005      C3006   1.404       .  A
C3006      H3010   1.083       .  S
C3007      C3012   1.402       .  A
C3007      C3016   1.404       .  A
C3012      C3013   1.400       .  A
C3012      H3017   1.083       .  S
C3013      C3014   1.412       .  A
C3013      H3018   1.081       .  S
C3014      C3015   1.408       .  A
C3015      C3016   1.400       .  A
C3015      H3019   1.076       .  S
C3016      H3020   1.083       .  S
C3021      C3022   1.409       .  A
C3021      C3026   1.403       .  A
C3021      H3031   1.083       .  S
C3022      C3027   1.493       .  S
C3022      C3023   1.407       .  A
C3023      C3024   1.397       .  A
C3023      H3028   1.083       .  S
C3024      C3025   1.405       .  A
C3024      H3029   1.083       .  S
C3025      C3026   1.406       .  A
C3026      H3030   1.083       .  S
C3027      C3032   1.405       .  A
C3027      C3036   1.407       .  A
C3032      C3033   1.399       .  A
C3032      H3037   1.082       .  S
C3033      C3034   1.410       .  A
C3033      H3038   1.083       .  S
C3034      C3035   1.410       .  A
C3035      C3036   1.400       .  A
C3035      H3039   1.077       .  S
C3036      H3040   1.083       .  S
C3041      C3042   1.403       .  A
C3041      C3046   1.403       .  A
C3041      H3051   1.083       .  S
C3042      C3047   1.476       .  S
C3042      C3043   1.401       .  A
C3043      C3044   1.392       .  A
C3043      H3048   1.083       .  S
C3044      C3045   1.406       .  A
C3044      H3049   1.082       .  S
C3045      C3046   1.407       .  A
C3046      H3050   1.081       .  S
C3047      C3052   1.403       .  A
C3047      C3056   1.399       .  A
C3052      C3053   1.404       .  A
C3052      H3057   1.083       .  S
C3053      C3054   1.409       .  A
C3053      H3058   1.080       .  S
C3054      C3055   1.409       .  A
C3055      C3056   1.392       .  A
C3055      H3059   1.081       .  S
C3056      H3060   1.084       .  S
C3061      C3062   1.410       .  A
C3061      C3066   1.400       .  A
C3061      H3071   1.081       .  S
C3062      C3067   1.503       .  S
C3062      C3063   1.411       .  A
C3063      C3064   1.402       .  A
C3063      H3068   1.081       .  S
C3064      C3065   1.405       .  A
C3064      H3069   1.083       .  S
C3065      C3066   1.404       .  A
C3066      H3070   1.083       .  S
C3067      C3072   1.409       .  A
C3067      C3076   1.408       .  A
C3072      C3073   1.402       .  A
C3072      H3077   1.082       .  S
C3073      C3074   1.410       .  A
C3073      H3078   1.078       .  S
C3074      C3075   1.409       .  A
C3075      C3076   1.399       .  A
C3075      H3079   1.083       .  S
C3076      H3080   1.081       .  S
C3081      C3082   1.408       .  A
C3081      C3086   1.396       .  A
C3081      H3091   1.083       .  S
C3082      C3087   1.493       .  S
C3082      C3083   1.411       .  A
C3083      C3084   1.400       .  A
C3083      H3088   1.081       .  S
C3084      C3085   1.399       .  A
C3084      H3089   1.084       .  S
C3085      C3086   1.401       .  A
C3086      H3090   1.083       .  S
C3087      C3092   1.407       .  A
C3087      C3096   1.406       .  A
C3092      C3093   1.397       .  A
C3092      H3097   1.082       .  S
C3093      C3094   1.407       .  A
C3093      H3098   1.081       .  S
C3094      C3095   1.405       .  A
C3095      C3096   1.399       .  A
C3095      H3099   1.077       .  S
C3096      H3100   1.082       .  S
C3101      C3102   1.406       .  A
C3101      C3106   1.400       .  A
C3101      H3111   1.083       .  S
C3102      C3107   1.497       .  S
C3102      C3103   1.409       .  A
C3103      C3104   1.402       .  A
C3103      H3108   1.082       .  S
C3104      C3105   1.405       .  A
C3104      H3109   1.082       .  S
C3105      C3106   1.410       .  A
C3106      H3110   1.082       .  S
C3107      C3112   1.408       .  A
C3107      C3116   1.409       .  A
C3112      C3113   1.401       .  A
C3112      H3117   1.082       .  S
C3113      C3114   1.406       .  A
C3113      H3118   1.083       .  S
C3114      C3115   1.402       .  A
C3115      C3116   1.402       .  A
C3115      H3119   1.081       .  S
C3116      H3120   1.082       .  S
C3121      C3122   1.404       .  A
C3121      C3126   1.397       .  A
C3121      H3131   1.083       .  S
C3122      C3127   1.495       .  S
C3122      C3123   1.408       .  A
C3123      C3124   1.405       .  A
C3123      H3128   1.083       .  S
C3124      C3125   1.411       .  A
C3124      H3129   1.078       .  S
C3125      C3126   1.410       .  A
C3126      H3130   1.083       .  S
C3127      C3132   1.408       .  A
C3127      C3136   1.407       .  A
C3132      C3133   1.401       .  A
C3132      H3137   1.083       .  S
C3133      C3134   1.406       .  A
C3133      H3138   1.083       .  S
C3134      C3135   1.406       .  A
C3135      C3136   1.402       .  A
C3135      H3139   1.083       .  S
C3136      H3140   1.082       .  S
C3141      C3142   1.413       .  A
C3141      C3146   1.404       .  A
C3141      H3151   1.081       .  S
C3142      C3147   1.508   1_556  S
C3142      C3143   1.410       .  A
C3143      C3144   1.399       .  A
C3143      H3148   1.081       .  S
C3144      C3145   1.406       .  A
C3144      H3149   1.082       .  S
C3145      C3146   1.406       .  A
C3146      H3150   1.082       .  S
C3147      C3152   1.412       .  A
C3147      C3156   1.414       .  A
C3152      C3153   1.401       .  A
C3152      H3157   1.081       .  S
C3153      C3154   1.402       .  A
C3153      H3158   1.083       .  S
C3154      C3155   1.402       .  A
C3155      C3156   1.404       .  A
C3155      H3159   1.083       .  S
C3156      H3160   1.081       .  S
C3161      C3162   1.401       .  A
C3161      C3166   1.394       .  A
C3161      H3171   1.083       .  S
C3162      C3167   1.484       .  S
C3162      C3163   1.405       .  A
C3163      C3164   1.401       .  A
C3163      H3168   1.083       .  S
C3164      C3165   1.411       .  A
C3164      H3169   1.078       .  S
C3165      C3166   1.410       .  A
C3166      H3170   1.083       .  S
C3167      C3172   1.405       .  A
C3167      C3176   1.405       .  A
C3172      C3173   1.398       .  A
C3172      H3177   1.083       .  S
C3173      C3174   1.405       .  A
C3173      H3178   1.083       .  S
C3174      C3175   1.405       .  A
C3175      C3176   1.398       .  A
C3175      H3179   1.083       .  S
C3176      H3180   1.083       .  S
C3181      C3182   1.412       .  A
C3181      C3186   1.401       .  A
C3181      H3191   1.080       .  S
C3182      C3187   1.515       .  S
C3182      C3183   1.413       .  A
C3183      C3184   1.407       .  A
C3183      H3188   1.081       .  S
C3184      C3185   1.408       .  A
C3184      H3189   1.081       .  S
C3185      C3186   1.407       .  A
C3186      H3190   1.082       .  S
C3187      C3192   1.414       .  A
C3187      C3196   1.415       .  A
C3192      C3193   1.403       .  A
C3192      H3197   1.080       .  S
C3193      C3194   1.402       .  A
C3193      H3198   1.083       .  S
C3194      C3195   1.403       .  A
C3195      C3196   1.405       .  A
C3195      H3199   1.083       .  S
C3196      H3200   1.080       .  S
C3201      C3202   1.404       .  A
C3201      C3206   1.399       .  A
C3201      H3211   1.083       .  S
C3202      C3207   1.493       .  S
C3202      C3203   1.410       .  A
C3203      C3204   1.406       .  A
C3203      H3208   1.083       .  S
C3204      C3205   1.403       .  A
C3204      H3209   1.083       .  S
C3205      C3206   1.408       .  A
C3206      H3210   1.083       .  S
C3207      C3212   1.406       .  A
C3207      C3216   1.403       .  A
C3212      C3213   1.403       .  A
C3212      H3217   1.083       .  S
C3213      C3214   1.409       .  A
C3213      H3218   1.077       .  S
C3214      C3215   1.413       .  A
C3215      C3216   1.401       .  A
C3215      H3219   1.080       .  S
C3216      H3220   1.083       .  S
C3221      C3222   1.409       .  A
C3221      C3226   1.401       .  A
C3221      H3231   1.082       .  S
C3222      C3227   1.501       .  S
C3222      C3223   1.411       .  A
C3223      C3224   1.402       .  A
C3223      H3228   1.082       .  S
C3224      C3225   1.404       .  A
C3224      H3229   1.083       .  S
C3225      C3226   1.406       .  A
C3226      H3230   1.083       .  S
C3227      C3232   1.409       .  A
C3227      C3236   1.406       .  A
C3232      C3233   1.405       .  A
C3232      H3237   1.082       .  S
C3233      C3234   1.411       .  A
C3233      H3238   1.078       .  S
C3234      C3235   1.409       .  A
C3235      C3236   1.398       .  A
C3235      H3239   1.083       .  S
C3236      H3240   1.082       .  S
C3241      C3242   1.411       .  A
C3241      C3246   1.401       .  A
C3241      H3251   1.082       .  S
C3242      C3247   1.505       .  S
C3242      C3243   1.411       .  A
C3243      C3244   1.404       .  A
C3243      H3248   1.082       .  S
C3244      C3245   1.405       .  A
C3244      H3249   1.083       .  S
C3245      C3246   1.403       .  A
C3246      H3250   1.083       .  S
C3247      C3252   1.406   1_554  A
C3247      C3256   1.409   1_554  A
C3252      C3253   1.398       .  A
C3252      H3257   1.082   1_556  S
C3253      C3254   1.412       .  A
C3253      H3258   1.079       .  S
C3254      C3255   1.411       .  A
C3255      C3256   1.407       .  A
C3255      H3259   1.078       .  S
C3256      H3260   1.082       .  S
C3261      C3262   1.407       .  A
C3261      C3266   1.395       .  A
C3261      H3271   1.083       .  S
C3262      C3267   1.488       .  S
C3262      C3263   1.410       .  A
C3263      C3264   1.401       .  A
C3263      H3268   1.083       .  S
C3264      C3265   1.400       .  A
C3264      H3269   1.083       .  S
C3265      C3266   1.400       .  A
C3266      H3270   1.084       .  S
C3267      C3272   1.405       .  A
C3267      C3276   1.406       .  A
C3272      C3273   1.395       .  A
C3272      H3277   1.083       .  S
C3273      C3274   1.407       .  A
C3273      H3278   1.082       .  S
C3274      C3275   1.406       .  A
C3275      C3276   1.401       .  A
C3275      H3279   1.078       .  S
C3276      H3280   1.083       .  S
C3281      C3282   1.410       .  A
C3281      C3286   1.406       .  A
C3281      H3291   1.082       .  S
C3282      C3287   1.497       .  S
C3282      C3283   1.406       .  A
C3283      C3284   1.398       .  A
C3283      H3288   1.083       .  S
C3284      C3285   1.406       .  A
C3284      H3289   1.083       .  S
C3285      C3286   1.404       .  A
C3286      H3290   1.083       .  S
C3287      C3292   1.408       .  A
C3287      C3296   1.409       .  A
C3292      C3293   1.404       .  A
C3292      H3297   1.083       .  S
C3293      C3294   1.407       .  A
C3293      H3298   1.083       .  S
C3294      C3295   1.405       .  A
C3295      C3296   1.401       .  A
C3295      H3299   1.083       .  S
C3296      H3300   1.083       .  S
C3301      C3302   1.404       .  A
C3301      C3306   1.401       .  A
C3301      H3311   1.083       .  S
C3302      C3307   1.488       .  S
C3302      C3303   1.404       .  A
C3303      C3304   1.398       .  A
C3303      H3308   1.083       .  S
C3304      C3305   1.411       .  A
C3304      H3309   1.076       .  S
C3305      C3306   1.411       .  A
C3306      H3310   1.083       .  S
C3307      C3312   1.406       .  A
C3307      C3316   1.405       .  A
C3312      C3313   1.400       .  A
C3312      H3317   1.083       .  S
C3313      C3314   1.407       .  A
C3313      H3318   1.082       .  S
C3314      C3315   1.408       .  A
C3315      C3316   1.399       .  A
C3315      H3319   1.082       .  S
C3316      H3320   1.083       .  S
C3321      C3322   1.403       .  A
C3321      C3326   1.399       .  A
C3321      H3331   1.083       .  S
C3322      C3327   1.478       .  S
C3322      C3323   1.402       .  A
C3323      C3324   1.393       .  A
C3323      H3328   1.083       .  S
C3324      C3325   1.408       .  A
C3324      H3329   1.082       .  S
C3325      C3326   1.407       .  A
C3326      H3330   1.079       .  S
C3327      C3332   1.406       .  A
C3327      C3336   1.403       .  A
C3332      C3333   1.400       .  A
C3332      H3337   1.083       .  S
C3333      C3334   1.402       .  A
C3333      H3338   1.083       .  S
C3334      C3335   1.404       .  A
C3335      C3336   1.392       .  A
C3335      H3339   1.083       .  S
C3336      H3340   1.083       .  S
C3341      C3342   1.412       .  A
C3341      C3346   1.405       .  A
C3341      H3351   1.082       .  S
C3342      C3347   1.501       .  S
C3342      C3343   1.409       .  A
C3343      C3344   1.399       .  A
C3343      H3348   1.082       .  S
C3344      C3345   1.401       .  A
C3344      H3349   1.080       .  S
C3345      C3346   1.403       .  A
C3346      H3350   1.083       .  S
C3347      C3352   1.407       .  A
C3347      C3356   1.410       .  A
C3352      C3353   1.401       .  A
C3352      H3357   1.082       .  S
C3353      C3354   1.409       .  A
C3353      H3358   1.082       .  S
C3354      C3355   1.407       .  A
C3355      C3356   1.403       .  A
C3355      H3359   1.081       .  S
C3356      H3360   1.082       .  S
