geometry optimzed in LAMMPS
_audit_creation_date              2020-11-30 
_audit_creation_method            'lammps2cif' 
_symmetry_space_group_name_H-M    'P1' 
_symmetry_Int_Tables_number       1 
_symmetry_cell_setting            triclinic 
loop_ 
_symmetry_equiv_pos_as_xyz 
  x,y,z 
_cell_length_a                    47.73902333 
_cell_length_b                    44.55932563586862 
_cell_length_c                    40.40110385326382 
_cell_angle_alpha                 89.57425658250752 
_cell_angle_beta                  89.38072456453052 
_cell_angle_gamma                 89.98414591737986 
loop_ 
_atom_site_label 
_atom_site_type_symbol 
_atom_site_fract_x 
_atom_site_fract_y 
_atom_site_fract_z 
_atom_site_charge 
C1          C  0.78510996  0.22697291  0.10358735     0.86300
C2          C  0.76913254  0.24850088  0.08068927    -0.54000
C3          C  0.75284417  0.26980463  0.09543690     0.09200
C4          C  0.75547168  0.26837578  0.13354549     0.20200
C5          C  0.80274274  0.24898457  0.12455589    -0.54700
C6          C  0.78724078  0.27015396  0.14112355     0.09300
C7          C  0.76250665  0.21465015  0.12765835    -0.54200
C8          C  0.74666369  0.23608921  0.14312555     0.09900
H9          H  0.76920332  0.24524513  0.05419113     0.14400
H10         H  0.74383684  0.28620752  0.14628711     0.00100
H11         H  0.82535109  0.24974939  0.12471911     0.14700
H12         H  0.75870018  0.19080227  0.13122611     0.14500
C13         C  0.79024224  0.22317493  0.39335765     0.86300
C14         C  0.77453689  0.20788881  0.36511242    -0.54000
C15         C  0.75823736  0.22576554  0.34648715     0.09200
C16         C  0.76139409  0.25954809  0.35552622     0.20200
C17         C  0.80861961  0.24585435  0.37358968    -0.54700
C18         C  0.79358646  0.26543498  0.35382975     0.09300
C19         C  0.76856010  0.24268117  0.41192233    -0.54200
C20         C  0.75389261  0.26243437  0.39260340     0.09900
H21         H  0.77684680  0.18444113  0.35877346     0.14400
H22         H  0.74918441  0.27505726  0.33980648     0.00100
H23         H  0.83129795  0.24528918  0.37402474     0.14700
H24         H  0.76586504  0.24169216  0.43864391     0.14500
C25         C  0.82761229  0.39659764  0.21464777     0.45300
H26         H  0.82283413  0.39577877  0.18845944    -0.03800
C27         C  0.83655800  0.39951146  0.27712633     0.45300
H28         H  0.84063330  0.40353531  0.30305816    -0.03800
C29         C  0.80987754  0.42153573  0.23221947    -0.17500
C30         C  0.82062885  0.36667149  0.23259700    -0.17200
C31         C  0.85909804  0.40158167  0.22194572    -0.17600
C32         C  0.81475210  0.42280694  0.26565502    -0.17600
C33         C  0.82479077  0.36806987  0.26720105    -0.17100
C34         C  0.86349418  0.40447993  0.25574961    -0.17500
C35         C  0.83849483  0.10449788  0.03775897     0.45300
H36         H  0.83847987  0.10882199  0.06450189    -0.03800
C37         C  0.84110226  0.09730912  0.47545832     0.45300
H38         H  0.84398696  0.09286999  0.44911790    -0.03800
C39         C  0.81522977  0.08250247  0.02596910    -0.17500
C40         C  0.83467057  0.13380643  0.01688600    -0.17200
C41         C  0.86663038  0.09059187  0.02681244    -0.17600
C42         C  0.81549170  0.08099318  0.49175795    -0.17600
C43         C  0.83687179  0.13086816  0.48352960    -0.17100
C44         C  0.86752433  0.08663438  0.49392863    -0.17500
O45         O  0.02550689  0.02751912  0.38113141    -0.58000
C46         C  0.95317476  0.02108279  0.41901366     0.74600
O47         O  0.97425695  0.46655341  0.32602600    -0.59200
C48         C  0.03082805  0.02861130  0.35046538     0.74600
C49         C  0.03116198  0.44062743  0.41024487     0.77000
Cd50       Cd  0.99277863  0.48325337  0.37969269     1.37500
O51         O  0.95204604  0.02088772  0.38774408    -0.58000
O52         O  0.01494136  0.95868597  0.42629695    -0.56800
C53         C  0.95370842  0.45145705  0.33705130     0.76900
O54         O  0.02459231  0.43933074  0.38006669    -0.59200
O55         O  0.97084419  0.50033998  0.43206755    -0.57700
O56         O  0.01764931  0.50914649  0.33272844    -0.57600
O57         O  0.95190479  0.94905382  0.36805972    -0.56800
C58         C  0.15620684  0.39422263  0.02961072     0.45300
H59         H  0.15598643  0.39699871  0.05609343    -0.03800
C60         C  0.15902983  0.38880554  0.46702727     0.45300
H61         H  0.16275303  0.38606180  0.44054204    -0.03800
C62         C  0.18197870  0.41055415  0.01479651    -0.17500
C63         C  0.15779496  0.36004418  0.01984318    -0.17200
C64         C  0.13096245  0.40880039  0.01104192    -0.17600
C65         C  0.18269434  0.40851437  0.48216668    -0.17600
C66         C  0.16005338  0.35820433  0.48483745    -0.17100
C67         C  0.13025933  0.40254920  0.47788493    -0.17500
C68         C  0.14348728  0.09150167  0.21976172     0.45300
H69         H  0.14009813  0.08792474  0.19325570    -0.03800
C70         C  0.14826561  0.09831299  0.28272742     0.45300
H71         H  0.14982701  0.10146700  0.30973164    -0.03800
C72         C  0.16936311  0.07453506  0.23378330    -0.17500
C73         C  0.14777468  0.12497244  0.22892554    -0.17200
C74         C  0.11767102  0.08016933  0.23979935    -0.17600
C75         C  0.17130603  0.07715809  0.26786817    -0.17600
C76         C  0.15068748  0.12853527  0.26302600    -0.17100
C77         C  0.11980837  0.08433515  0.27343120    -0.17500
C78         C  0.19635680  0.22369191  0.35032877     0.86300
C79         C  0.21668597  0.20448463  0.37035029    -0.54000
C80         C  0.23503359  0.21978931  0.38930429     0.09200
C81         C  0.23100168  0.25430074  0.38713711     0.20200
C82         C  0.18183385  0.24319198  0.37767330    -0.54700
C83         C  0.19986800  0.26055509  0.39670698     0.09300
C84         C  0.21360874  0.24789374  0.33194461    -0.54200
C85         C  0.23259879  0.26238905  0.35058395     0.09900
H86         H  0.21526839  0.18020573  0.37065865     0.14400
H87         H  0.24747934  0.26688550  0.39946493     0.00100
H88         H  0.15946815  0.24477869  0.38056460     0.14700
H89         H  0.21116523  0.25314193  0.30582789     0.14500
C90         C  0.19098982  0.22231320  0.14725521     0.86300
C91         C  0.21035038  0.23838935  0.17194159    -0.54000
C92         C  0.22851871  0.25897982  0.15801031     0.09200
C93         C  0.22602035  0.26072336  0.11960301     0.20200
C94         C  0.17663711  0.24733916  0.12763015    -0.54700
C95         C  0.19450786  0.26730118  0.11255865     0.09300
C96         C  0.21200628  0.20864542  0.12239843    -0.54200
C97         C  0.23069802  0.22783629  0.10774817     0.09900
H98         H  0.21004534  0.23334786  0.19827262     0.14400
H99         H  0.24049743  0.27760632  0.10885682     0.00100
H100        H  0.15408505  0.24837342  0.12454353     0.14700
H101        H  0.21289582  0.18496478  0.11730935     0.14500
O102        O  0.96330895  0.03410853  0.12600012    -0.58000
C103        C  0.02888287  0.01787868  0.17029468     0.74600
O104        O  0.95666740  0.45052316  0.11863021    -0.59200
C105        C  0.95608458  0.03299421  0.09605863     0.74600
C106        C  0.03698332  0.46356531  0.08130732     0.77000
Cd107      Cd  0.99396376  0.48858392  0.12365468     1.37500
O108        O  0.00596605  0.02966080  0.16179200    -0.58000
O109        O  0.02497147  0.99072850  0.07846202    -0.56800
C110        C  0.95147278  0.44808671  0.14925500     0.76900
O111        O  0.02397809  0.44760287  0.10248406    -0.59200
O112        O  0.03495464  0.48953704  0.16034122    -0.57700
O113        O  0.96991053  0.51369642  0.07707099    -0.57600
O114        O  0.96572675  0.96191621  0.17088088    -0.56800
C115        C  0.32997704  0.35714248  0.28399705     0.45300
H116        H  0.32806051  0.35829689  0.31099306    -0.03800
C117        C  0.33183496  0.35123306  0.22093370     0.45300
H118        H  0.33289495  0.34654284  0.19536518    -0.03800
C119        C  0.30712306  0.33567568  0.27041397    -0.17500
C120        C  0.32737111  0.38819237  0.26566890    -0.17200
C121        C  0.35834347  0.34458690  0.27235391    -0.17600
C122        C  0.30799691  0.33242664  0.23654410    -0.17600
C123        C  0.32508721  0.38430517  0.23094791    -0.17100
C124        C  0.35981982  0.34206477  0.23838026    -0.17500
C125        C  0.34358355  0.15127426  0.47285970     0.45300
H126        H  0.34936161  0.15106413  0.44683148    -0.03800
C127        C  0.33644798  0.15143170  0.03655448     0.45300
H128        H  0.33245117  0.15148946  0.06345081    -0.03800
C129        C  0.31804572  0.17110414  0.48086810    -0.17500
C130        C  0.33662969  0.11982241  0.48829594    -0.17200
C131        C  0.36841214  0.16489748  0.49165954    -0.17600
C132        C  0.31500174  0.17175421  0.01711897    -0.17600
C133        C  0.33464896  0.11923578  0.02172760    -0.17100
C134        C  0.36589047  0.16336895  0.02712965    -0.17500
C135        C  0.29276269  0.02643151  0.39757900     0.86300
C136        C  0.27680203  0.00354596  0.41880920    -0.54000
C137        C  0.26209873  0.48174635  0.40269391     0.09200
C138        C  0.26411179  0.48640473  0.36467027     0.20200
C139        C  0.31008814  0.00718901  0.37259239    -0.54700
C140        C  0.29578631  0.48521317  0.35572253     0.09300
C141        C  0.27058646  0.04061689  0.37463784    -0.54200
C142        C  0.25428947  0.02092361  0.35720834     0.09900
H143        H  0.27667030  0.00475794  0.44561742     0.14400
H144        H  0.25196218  0.46882867  0.35246103     0.00100
H145        H  0.33215167  0.01007575  0.36728178     0.14700
H146        H  0.26837602  0.06478873  0.37221809     0.14500
C147        C  0.29181402  0.02151566  0.10227991     0.86300
C148        C  0.26993784  0.03929989  0.12274010    -0.54000
C149        C  0.25089426  0.02177510  0.13986119     0.09200
C150        C  0.25690622  0.48937784  0.13324622     0.20200
C151        C  0.30478115  0.99976048  0.12724666    -0.54700
C152        C  0.28762277  0.48257231  0.14305386     0.09300
C153        C  0.27346318  0.00180014  0.07986477    -0.54200
C154        C  0.25617546  0.48637456  0.09523865     0.09900
H155        H  0.26993901  0.06362382  0.12419270     0.14400
H156        H  0.24107127  0.47506344  0.14591514     0.00100
H157        H  0.32720546  0.99833572  0.13117583     0.14700
H158        H  0.27384743  0.00257005  0.05313314     0.14500
O159        O  0.47768820  0.24119083  0.43085429    -0.58000
C160        C  0.53277090  0.22371031  0.34454325     0.74600
O161        O  0.46988994  0.28192254  0.32942434    -0.59200
C162        C  0.45879863  0.22544784  0.41767310     0.74600
C163        C  0.53342043  0.30873109  0.40483833     0.77000
Cd164      Cd  0.49524075  0.26381611  0.37863344     1.37500
O165        O  0.53096357  0.22428317  0.37576437    -0.58000
O166        O  0.52080988  0.29030885  0.42378769    -0.56800
C167        C  0.45265644  0.29780183  0.34564190     0.76900
O168        O  0.52727849  0.30720171  0.37456154    -0.59200
O169        O  0.51630563  0.24066189  0.32876831    -0.57700
O170        O  0.45784731  0.22609180  0.38642662    -0.57600
O171        O  0.45602023  0.29915462  0.37662460    -0.56800
C172        C  0.70215047  0.03122594  0.34962227     0.86300
C173        C  0.72501347  0.01273028  0.33197566    -0.54000
C174        C  0.74225181  0.49818709  0.34746776     0.09200
C175        C  0.73466372  0.50162204  0.38466176     0.20200
C176        C  0.68601250  0.00779649  0.37020343    -0.54700
C177        C  0.70323196  0.49296179  0.38838496     0.09300
C178        C  0.71895147  0.04977360  0.37506742    -0.54200
C179        C  0.73585524  0.03284314  0.39531974     0.09900
H180        H  0.72853277  0.01301191  0.30577820     0.14400
H181        H  0.74834858  0.48983280  0.40223742     0.00100
H182        H  0.66380549  0.50363598  0.36590120     0.14700
H183        H  0.71818301  0.07409689  0.37618907     0.14500
C184        C  0.64800806  0.15252263  0.27891399     0.45300
H185        H  0.64738561  0.15167797  0.30578549    -0.03800
C186        C  0.64471947  0.15598937  0.21571774     0.45300
H187        H  0.64236298  0.15613993  0.18882896    -0.03800
C188        C  0.67230270  0.17149600  0.26381864    -0.17500
C189        C  0.65174729  0.12170404  0.26248527    -0.17200
C190        C  0.61988544  0.16586240  0.26683129    -0.17600
C191        C  0.66825503  0.17688545  0.22980598    -0.17600
C192        C  0.64993289  0.12321707  0.22825286    -0.17100
C193        C  0.61808584  0.16696750  0.23303511    -0.17500
C194        C  0.68780259  0.02577197  0.14521329     0.86300
C195        C  0.70880396  0.04130357  0.12151181    -0.54000
C196        C  0.72894081  0.02372435  0.10820618     0.09200
C197        C  0.72733741  0.49059143  0.11625723     0.20200
C198        C  0.67582029  0.99990476  0.12452685    -0.54700
C199        C  0.69715902  0.48094194  0.10650386     0.09300
C200        C  0.70696903  0.01012050  0.17062810    -0.54200
C201        C  0.72757970  0.49125147  0.15471743     0.09900
H202        H  0.70942512  0.06510303  0.11669942     0.14400
H203        H  0.74433044  0.47670469  0.10555154     0.00100
H204        H  0.65451863  0.49491542  0.11771047     0.14700
H205        H  0.70534230  0.01404768  0.19700433     0.14500
C206        C  0.65786599  0.36188339  0.45629181     0.45300
H207        H  0.65953495  0.36200977  0.42957111    -0.03800
C208        C  0.65865837  0.35791618  0.01951281     0.45300
H209        H  0.65817973  0.35796338  0.04681829    -0.03800
C210        C  0.67640171  0.33631956  0.47085399    -0.17500
C211        C  0.66861117  0.39111309  0.47149360    -0.17200
C212        C  0.62730820  0.35826837  0.46979322    -0.17600
C213        C  0.67754605  0.33263883  0.00489618    -0.17600
C214        C  0.66972203  0.38876737  0.00567660    -0.17100
C215        C  0.62957014  0.35274988  0.00381829    -0.17500
O216        O  0.47245454  0.21521898  0.11417707    -0.58000
C217        C  0.53082115  0.22741949  0.15841603     0.74600
O218        O  0.53320583  0.30203578  0.11005633    -0.59200
C219        C  0.45481776  0.22365242  0.09295419     0.74600
C220        C  0.45525884  0.30046678  0.15868950     0.77000
Cd221      Cd  0.49464558  0.26519710  0.11978927     1.37500
O222        O  0.53024293  0.22549260  0.12716184    -0.58000
O223        O  0.47711764  0.28913618  0.17103228    -0.54000
C224        C  0.53571969  0.29849487  0.07915725     0.76900
O225        O  0.45308932  0.29872636  0.12760369    -0.59200
O226        O  0.51361470  0.24547439  0.17165178    -0.57700
O227        O  0.45680506  0.25043490  0.08259503    -0.57600
O228        O  0.51787473  0.28113287  0.06652173    -0.56800
C229        C  0.59377574  0.35313090  0.05195882    -0.02100
C230        C  0.60559446  0.33876595  0.02384593     0.07600
C231        C  0.59539191  0.30979423  0.01601806    -0.02200
C232        C  0.57241911  0.29699480  0.03343415    -0.02200
C233        C  0.55899287  0.31283783  0.05936499     0.07800
C234        C  0.56985674  0.34114397  0.06829418    -0.02400
Br235      Br  0.55126200  0.36481114  0.10192966    -0.00900
Br236      Br  0.60921711  0.38922870  0.57168740    -0.01000
Br237      Br  0.56127907  0.25635472  0.02315025    -0.00900
Br238      Br  0.61547627  0.28506475  0.98513229    -0.00900
C239        C  0.66245895  0.44064490  0.03339632    -0.02100
C240        C  0.67812730  0.41372310  0.02977966     0.07600
C241        C  0.69952205  0.40878852  0.05351648    -0.02200
C242        C  0.70454981  0.42948229  0.07945726    -0.02200
C243        C  0.69080355  0.45761881  0.08025824     0.07800
C244        C  0.67095580  0.46350507  0.05524381    -0.02400
Br245      Br  0.65622650  0.00536894  0.05073453    -0.00900
Br246      Br  0.62295044  0.44597562  0.51780212    -0.01000
Br247      Br  0.72894994  0.41767397  0.11508622    -0.00900
Br248      Br  0.72209095  0.37326051  0.05221689    -0.00900
C249        C  0.57849251  0.16571174  0.19150232    -0.02100
C250        C  0.59491849  0.18194554  0.21424161     0.07600
C251        C  0.59069221  0.21322432  0.21702841    -0.02200
C252        C  0.56895624  0.22756256  0.19988934    -0.02200
C253        C  0.55187283  0.21114437  0.17833893     0.07800
C254        C  0.55681195  0.18019492  0.17398542    -0.02400
Br255      Br  0.53335724  0.15741761  0.14470218    -0.00900
Br256      Br  0.58608643  0.12392030  0.18300025    -0.01000
Br257      Br  0.56450176  0.27060943  0.20369148    -0.00900
Br258      Br  0.61756100  0.23789005  0.23910119    -0.00900
C259        C  0.65100300  0.04300069  0.19013583    -0.02100
C260        C  0.66661955  0.04855104  0.16074329     0.07600
C261        C  0.66655270  0.07850138  0.14968260    -0.02200
C262        C  0.66587901  0.10157300  0.17268800    -0.02200
C263        C  0.65286598  0.09705908  0.20406211     0.07800
C264        C  0.64204006  0.06758280  0.21030921    -0.02400
Br265      Br  0.61341683  0.06086553  0.24344560    -0.00900
Br266      Br  0.63927891  0.00264677  0.20015718    -0.01000
Br267      Br  0.69071182  0.13407078  0.16208248    -0.00900
Br268      Br  0.66041985  0.08844363  0.10370118    -0.00900
C269        C  0.66163131  0.06895641  0.33712239    -0.02100
C270        C  0.68377082  0.05024708  0.32592703     0.07600
C271        C  0.68945516  0.05090553  0.29159053    -0.02200
C272        C  0.68347991  0.07665485  0.27331534    -0.02200
C273        C  0.66097723  0.09518648  0.28318305     0.07800
C274        C  0.64833526  0.08886027  0.31457979    -0.02400
Br275      Br  0.61258965  0.10593023  0.32681625    -0.00900
Br276      Br  0.64859785  0.06728708  0.38239693    -0.01000
Br277      Br  0.71013494  0.08669368  0.23909426    -0.00900
Br278      Br  0.68710163  0.01438765  0.26662525    -0.00900
C279        C  0.69419642  0.41338743  0.41918568    -0.02100
C280        C  0.67737253  0.41702183  0.44862820     0.07600
C281        C  0.66188555  0.44391642  0.44926832    -0.02200
C282        C  0.67342169  0.46999010  0.43472233    -0.02200
C283        C  0.69292804  0.46703103  0.40848976     0.07800
C284        C  0.69908476  0.43801383  0.39779207    -0.02400
Br285      Br  0.70635024  0.43166806  0.35105035    -0.00900
Br286      Br  0.70948920  0.37647198  0.40341125    -0.01000
Br287      Br  0.65602496  0.00743201  0.44769295    -0.00900
Br288      Br  0.62651473  0.43915338  0.93823230    -0.00900
C289        C  0.54799720  0.18305327  0.30547069    -0.02100
C290        C  0.55467665  0.20616391  0.32753102     0.07600
C291        C  0.58277038  0.21378855  0.33260216    -0.02200
C292        C  0.60393424  0.20093424  0.31294796    -0.02200
C293        C  0.59763450  0.17806683  0.28990845     0.07800
C294        C  0.56954570  0.16790864  0.28815876    -0.02400
Br295      Br  0.56053411  0.13171536  0.26484630    -0.00900
Br296      Br  0.50938123  0.17165776  0.29990019    -0.01000
Br297      Br  0.64040513  0.21814915  0.31650344    -0.00900
Br298      Br  0.59222888  0.24329567  0.36565571    -0.00900
C299        C  0.55123622  0.34529112  0.44732237    -0.02100
C300        C  0.55510407  0.32982285  0.41725469     0.07600
C301        C  0.57980806  0.33577900  0.39870854    -0.02200
C302        C  0.60209131  0.35157878  0.41327281    -0.02200
C303        C  0.60119169  0.35768519  0.44775596     0.07800
C304        C  0.57391523  0.36090485  0.46130386    -0.02400
Br305      Br  0.56848094  0.39033484  0.99042614    -0.00900
Br306      Br  0.51461527  0.34751125  0.46774369    -0.01000
Br307      Br  0.62656073  0.37329235  0.38311255    -0.00900
Br308      Br  0.58376518  0.32310343  0.35323221    -0.00900
C309        C  0.42181356  0.22480708  0.46143182    -0.02100
C310        C  0.43753137  0.20903878  0.43774803     0.07600
C311        C  0.43083909  0.17893923  0.43121989    -0.02200
C312        C  0.40868636  0.16452186  0.44863971    -0.02200
C313        C  0.39299925  0.17988416  0.47346883     0.07800
C314        C  0.39969482  0.21059181  0.47875922    -0.02400
Br315      Br  0.37845671  0.23473352  0.00959622    -0.00900
Br316      Br  0.42865255  0.26737742  0.46749233    -0.01000
Br317      Br  0.40032319  0.12392369  0.43675006    -0.00900
Br318      Br  0.45247459  0.15731383  0.39840907    -0.00900
C319        C  0.41549805  0.16253589  0.04839500    -0.02100
C320        C  0.38763407  0.17314304  0.05162173     0.07600
C321        C  0.38194180  0.19542916  0.07569151    -0.02200
C322        C  0.40420212  0.21125736  0.09002881    -0.02200
C323        C  0.43206601  0.20394129  0.08185207     0.07800
C324        C  0.43773529  0.17832796  0.06286157    -0.02400
Br325      Br  0.47595434  0.16602851  0.05507943    -0.00900
Br326      Br  0.42307427  0.12526794  0.02611762    -0.01000
Br327      Br  0.39665152  0.24373078  0.12039314    -0.00900
Br328      Br  0.34445640  0.20662080  0.08818393    -0.00900
C329        C  0.29794836  0.09405587  0.45706848    -0.02100
C330        C  0.32630660  0.09472810  0.46660354     0.07600
C331        C  0.34363220  0.07052309  0.45688504    -0.02200
C332        C  0.33428152  0.04908769  0.43329924    -0.02200
C333        C  0.30617460  0.04997717  0.42137646     0.07800
C334        C  0.28778914  0.07009505  0.43830505    -0.02400
Br335      Br  0.24874458  0.06057875  0.44571771    -0.00900
Br336      Br  0.27071673  0.12298883  0.47345732    -0.01000
Br337      Br  0.35915042  0.01620232  0.42342319    -0.00900
Br338      Br  0.37819689  0.06391370  0.48020603    -0.00900
C339        C  0.31530313  0.06558854  0.03095305    -0.02100
C340        C  0.32969689  0.09103980  0.04314598     0.07600
C341        C  0.33885484  0.08862780  0.07681794    -0.02200
C342        C  0.32789668  0.06534960  0.09760949    -0.02200
C343        C  0.31340110  0.04111672  0.08326681     0.07800
C344        C  0.31642583  0.03908836  0.04884227    -0.02400
Br345      Br  0.32508187  0.00248632  0.02610561    -0.00900
Br346      Br  0.27775259  0.06577493  0.52288286    -0.01000
Br347      Br  0.33499777  0.06548804  0.14432338    -0.00900
Br348      Br  0.36732094  0.11399955  0.09494823    -0.00900
C349        C  0.42003208  0.29304509  0.20383650    -0.02100
C350        C  0.43223179  0.31221385  0.17994033     0.07600
C351        C  0.42164431  0.34144845  0.17592602    -0.02200
C352        C  0.39877014  0.35143895  0.19555090    -0.02200
C353        C  0.38569262  0.33198408  0.21916069     0.07800
C354        C  0.39739086  0.30287827  0.22363589    -0.02400
Br355      Br  0.38292591  0.27487886  0.25576051    -0.00900
Br356      Br  0.43306828  0.25192923  0.20762779    -0.01000
Br357      Br  0.38808584  0.39305921  0.19203819    -0.00900
Br358      Br  0.43941216  0.36818349  0.14430532    -0.00900
C359        C  0.43242238  0.33617884  0.30701712    -0.02100
C360        C  0.42862024  0.31242519  0.32963761     0.07600
C361        C  0.40144362  0.30293323  0.33807600    -0.02200
C362        C  0.37813462  0.31582877  0.32238160    -0.02200
C363        C  0.38191461  0.33673118  0.29585983     0.07800
C364        C  0.40908053  0.34896279  0.29109073    -0.02400
Br365      Br  0.41385280  0.38667813  0.26852737    -0.00900
Br366      Br  0.46957184  0.35181495  0.29892299    -0.01000
Br367      Br  0.34207455  0.30477701  0.33974016    -0.00900
Br368      Br  0.39631616  0.27037645  0.36968583    -0.00900
C369        C  0.32501290  0.44736700  0.27602714    -0.02100
C370        C  0.32745591  0.41713251  0.28720890     0.07600
C371        C  0.33051702  0.41446807  0.32199010    -0.02200
C372        C  0.31762176  0.43499354  0.34343749    -0.02200
C373        C  0.30825299  0.46287525  0.33162486     0.07800
C374        C  0.31428322  0.46990399  0.29794139    -0.02400
Br375      Br  0.30945951  0.51049782  0.28248318    -0.00900
Br376      Br  0.34607777  0.46016828  0.23756582    -0.01000
Br377      Br  0.31538863  0.42485036  0.38944518    -0.00900
Br378      Br  0.36310848  0.39481837  0.33985142    -0.00900
C379        C  0.32114678  0.40881037  0.17108882    -0.02100
C380        C  0.31262711  0.40659534  0.20545384     0.07600
C381        C  0.29040422  0.42603379  0.21496727    -0.02200
C382        C  0.28305226  0.45120029  0.19544790    -0.02200
C383        C  0.29616317  0.45661169  0.16462251     0.07800
C384        C  0.31480585  0.43478819  0.15220307    -0.02400
Br385      Br  0.32886275  0.43829647  0.10686427    -0.00900
Br386      Br  0.33409567  0.37574351  0.14385793    -0.01000
Br387      Br  0.25564096  0.47888287  0.21218676    -0.00900
Br388      Br  0.26666070  0.41661891  0.25217243    -0.00900
C389        C  0.25811685  0.31531504  0.22085360    -0.02100
C390        C  0.28759543  0.31362962  0.21588330     0.07600
C391        C  0.29728358  0.29367668  0.19082342    -0.02200
C392        C  0.27821442  0.27682902  0.17153979    -0.02200
C393        C  0.24902497  0.27736388  0.17820904     0.07800
C394        C  0.23953037  0.29585824  0.20433423    -0.02400
Br395      Br  0.20082012  0.29517940  0.21853149    -0.00900
Br396      Br  0.24146883  0.34688222  0.24633669    -0.01000
Br397      Br  0.29306911  0.25123367  0.13747335    -0.00900
Br398      Br  0.33676367  0.28668621  0.18349049    -0.00900
C399        C  0.26346742  0.23095725  0.05624375    -0.02100
C400        C  0.25321747  0.21555923  0.08448529     0.07600
C401        C  0.26438144  0.18665819  0.09014220    -0.02200
C402        C  0.27853880  0.17139884  0.06457535    -0.02200
C403        C  0.29129396  0.18708180  0.03741702     0.07800
C404        C  0.28540907  0.21848436  0.03671888    -0.02400
Br405      Br  0.31048623  0.24783792  0.51505290    -0.00900
Br406      Br  0.24932784  0.26959339  0.04411371    -0.01000
Br407      Br  0.27722350  0.12882875  0.06830651    -0.00900
Br408      Br  0.26524870  0.16926024  0.13437161    -0.00900
C409        C  0.29576650  0.16958734  0.42013943    -0.02100
C410        C  0.30008307  0.18339006  0.45228822     0.07600
C411        C  0.28798251  0.21168229  0.45501497    -0.02200
C412        C  0.26105016  0.21466927  0.44234393    -0.02200
C413        C  0.25681414  0.20465995  0.41013121     0.07800
C414        C  0.27417322  0.18073066  0.39910156    -0.02400
Br415      Br  0.26768269  0.16120106  0.35710648    -0.00900
Br416      Br  0.31826030  0.13801924  0.40045039    -0.01000
Br417      Br  0.23032945  0.20800556  0.47245170    -0.00900
Br418      Br  0.31364397  0.24418026  0.94131829    -0.00900
C419        C  0.27595979  0.26912185  0.31755092    -0.02100
C420        C  0.25405124  0.28225060  0.33542252     0.07600
C421        C  0.25174912  0.31363447  0.33597078    -0.02200
C422        C  0.27049263  0.33131290  0.31686870    -0.02200
C423        C  0.28859424  0.31749422  0.29324624     0.07800
C424        C  0.29074501  0.28580575  0.29381310    -0.02400
Br425      Br  0.31518699  0.26387682  0.26495514    -0.00900
Br426      Br  0.28970509  0.23033025  0.33049263    -0.01000
Br427      Br  0.26981855  0.37401754  0.32302118    -0.00900
Br428      Br  0.22340666  0.33230902  0.36313268    -0.00900
C429        C  0.21812521  0.05992907  0.34142089    -0.02100
C430        C  0.23137820  0.03247351  0.33420464     0.07600
C431        C  0.22206009  0.01770881  0.30530476    -0.02200
C432        C  0.20047994  0.03053812  0.28567146    -0.02200
C433        C  0.19258637  0.06118729  0.28969743     0.07800
C434        C  0.20387839  0.07600478  0.31728597    -0.02400
Br435      Br  0.20298037  0.11849284  0.32391427    -0.00900
Br436      Br  0.20750390  0.07004686  0.38557405    -0.01000
Br437      Br  0.17970040  0.00386695  0.25791785    -0.00900
Br438      Br  0.23756035  0.47911931  0.29287321    -0.00900
C439        C  0.21996311  0.06556027  0.21287430    -0.02100
C440        C  0.19074053  0.05939792  0.21101203     0.07600
C441        C  0.18184956  0.03947812  0.18579338    -0.02200
C442        C  0.20113799  0.02762701  0.16247909    -0.02200
C443        C  0.22997670  0.03432791  0.16429414     0.07800
C444        C  0.23922576  0.05214030  0.19072584    -0.02400
Br445      Br  0.27884156  0.05572843  0.19917483    -0.00900
Br446      Br  0.23523392  0.09361491  0.24377770    -0.01000
Br447      Br  0.18724941  0.00237231  0.12788687    -0.00900
Br448      Br  0.14344388  0.02634031  0.18320526    -0.00900
C449        C  0.07938711  0.07875374  0.19668513    -0.02100
C450        C  0.09366284  0.06453519  0.22313899     0.07600
C451        C  0.08576723  0.03483963  0.23229753    -0.02200
C452        C  0.06346517  0.02037941  0.21637241    -0.02200
C453        C  0.04985628  0.03445141  0.18973701     0.07800
C454        C  0.05794070  0.06364577  0.17988647    -0.02400
Br455      Br  0.04101363  0.08248104  0.14166711    -0.00900
Br456      Br  0.08801976  0.11943285  0.18329566    -0.01000
Br457      Br  0.05895257  0.47737199  0.22640280    -0.00900
Br458      Br  0.10714661  0.01165738  0.26352854    -0.00900
C459        C  0.16276848  0.14545395  0.17062820    -0.02100
C460        C  0.15037776  0.14995893  0.20265656     0.07600
C461        C  0.14174422  0.17988423  0.20948967    -0.02200
C462        C  0.15394746  0.20438146  0.19170537    -0.02200
C463        C  0.17049403  0.19894946  0.16305745     0.07800
C464        C  0.16793940  0.17005478  0.14967071    -0.02400
Br465      Br  0.16277714  0.16498538  0.10253169    -0.00900
Br466      Br  0.17797615  0.10871372  0.15358735    -0.01000
Br467      Br  0.14587411  0.24470940  0.20518983    -0.00900
Br468      Br  0.11058532  0.18725788  0.23897363    -0.00900
C469        C  0.15522626  0.18791270  0.33204686    -0.02100
C470        C  0.18116328  0.20259220  0.32506537     0.07600
C471        C  0.19618449  0.19244351  0.29603402    -0.02200
C472        C  0.18451837  0.17175122  0.27367185    -0.02200
C473        C  0.15898005  0.15710479  0.28110905     0.07800
C474        C  0.14418200  0.16619043  0.31004601    -0.02400
Br475      Br  0.10797458  0.14897549  0.32002318    -0.00900
Br476      Br  0.13631799  0.19206924  0.37422367    -0.01000
Br477      Br  0.20666126  0.16088359  0.23511621    -0.00900
Br478      Br  0.23565923  0.20069804  0.28809050    -0.00900
C479        C  0.21637583  0.41811361  0.06225454    -0.02100
C480        C  0.20045987  0.43043758  0.03602638     0.07600
C481        C  0.20089499  0.46202249  0.03198086    -0.02200
C482        C  0.21902591  0.48013506  0.05090830    -0.02200
C483        C  0.23582340  0.46734946  0.07610815     0.07800
C484        C  0.23332927  0.43627680  0.08235207    -0.02400
Br485      Br  0.25340107  0.41739894  0.11800685    -0.00900
Br486      Br  0.21681166  0.37592137  0.07080859    -0.01000
Br487      Br  0.21545855  0.02287313  0.04821499    -0.00900
Br488      Br  0.17398873  0.48149088  0.00411201    -0.00900
C489        C  0.19474214  0.44521737  0.43535656    -0.02100
C490        C  0.20392726  0.42585633  0.46097658     0.07600
C491        C  0.23321930  0.42444797  0.46644753    -0.02200
C492        C  0.25205032  0.44307827  0.44845165    -0.02200
C493        C  0.24268450  0.46045142  0.42101466     0.07800
C494        C  0.21374073  0.46030860  0.41417140    -0.02400
Br495      Br  0.19827901  0.48302778  0.37786906    -0.00900
Br496      Br  0.15643505  0.45701955  0.43219018    -0.01000
Br497      Br  0.29048105  0.44478101  0.46350103    -0.00900
Br498      Br  0.24911311  0.39677419  0.49755902    -0.00900
C499        C  0.06538213  0.45780375  0.02888774    -0.02100
C500        C  0.06180782  0.45203076  0.06295753     0.07600
C501        C  0.08463858  0.44024040  0.08067130    -0.02200
C502        C  0.10963869  0.43262848  0.06388837    -0.02200
C503        C  0.10994024  0.42983224  0.02889239     0.07800
C504        C  0.09006896  0.44834639  0.01239635    -0.02400
Br505      Br  0.09835349  0.47076405  0.47434067    -0.00900
Br506      Br  0.03682248  0.47929094  0.00474293    -0.01000
Br507      Br  0.14320605  0.44521788  0.08624498    -0.00900
Br508      Br  0.08389854  0.43933198  0.12853160    -0.00900
C509        C  0.15327486  0.32172075  0.43735605    -0.02100
C510        C  0.16899059  0.33118733  0.46474566     0.07600
C511        C  0.19540469  0.31810990  0.46935475    -0.02200
C512        C  0.20572779  0.29542568  0.44812866    -0.02200
C513        C  0.19000198  0.28565322  0.42012303     0.07800
C514        C  0.16455762  0.30148850  0.41392956    -0.02400
Br515      Br  0.14753794  0.30225065  0.37063642    -0.00900
Br516      Br  0.11451911  0.33301229  0.43384961    -0.01000
Br517      Br  0.24269604  0.28155995  0.45872648    -0.00900
Br518      Br  0.21802203  0.33154207  0.50522043    -0.00900
C519        C  0.15930916  0.30327039  0.03718556    -0.02100
C520        C  0.15844902  0.33407715  0.04577376     0.07600
C521        C  0.16086089  0.33947007  0.08020118    -0.02200
C522        C  0.17587397  0.31927416  0.10057466    -0.02200
C523        C  0.18340964  0.29064250  0.08898072     0.07800
C524        C  0.17324958  0.28213136  0.05766199    -0.02400
Br525      Br  0.17671367  0.24103990  0.04339470    -0.00900
Br526      Br  0.13211823  0.28639191  0.50483523    -0.01000
Br527      Br  0.18488884  0.33091897  0.14484404    -0.00900
Br528      Br  0.13422108  0.36498052  0.10251213    -0.00900
C529        C  0.08067401  0.04624620  0.34683564    -0.02100
C530        C  0.05283815  0.04851528  0.33599078     0.07600
C531        C  0.04672725  0.06814788  0.30964156    -0.02200
C532        C  0.06856575  0.08334102  0.29264974    -0.02200
C533        C  0.09700648  0.07574282  0.29848969     0.07800
C534        C  0.10276984  0.05815733  0.32724233    -0.02400
Br535      Br  0.14003614  0.04614938  0.33890983    -0.00900
Br536      Br  0.08874426  0.02575074  0.38803411    -0.01000
Br537      Br  0.05901997  0.11654243  0.26414222    -0.00900
Br538      Br  0.00820365  0.07514470  0.29784104    -0.00900
C539        C  0.08086043  0.42300611  0.40662623    -0.02100
C540        C  0.05505808  0.42324040  0.42392149     0.07600
C541        C  0.05304324  0.40781216  0.45446500    -0.02200
C542        C  0.07747933  0.39647283  0.46963629    -0.02200
C543        C  0.10433624  0.40264430  0.45568880     0.07800
C544        C  0.10483274  0.41037342  0.42123072    -0.02400
Br545      Br  0.13411615  0.39881540  0.39024901    -0.00900
Br546      Br  0.08462587  0.44249584  0.36375912    -0.01000
Br547      Br  0.07359888  0.37065003  0.00768261    -0.00900
Br548      Br  0.01699420  0.40222342  0.47554503    -0.00900
C549        C  0.90712682  0.05139304  0.09632723    -0.02100
C550        C  0.93437161  0.05315536  0.08300103     0.07600
C551        C  0.94011525  0.07303471  0.05671845    -0.02200
C552        C  0.91811757  0.08926546  0.04205892    -0.02200
C553        C  0.88986883  0.08264404  0.05055504     0.07800
C554        C  0.88475399  0.06532423  0.07981362    -0.02400
Br555      Br  0.84788212  0.05673827  0.09685690    -0.00900
Br556      Br  0.90011462  0.02759365  0.13595761    -0.01000
Br557      Br  0.92604455  0.12513093  0.51443749    -0.00900
Br558      Br  0.97817531  0.07818960  0.04126717    -0.00900
C559        C  0.89919067  0.04092602  0.48545742    -0.02100
C560        C  0.89117286  0.07050570  0.47614421     0.07600
C561        C  0.90470994  0.08395918  0.44832068    -0.02200
C562        C  0.92536500  0.06814319  0.43019321    -0.02200
C563        C  0.93302875  0.03869343  0.43955503     0.07800
C564        C  0.92035524  0.02553430  0.46783036    -0.02400
Br565      Br  0.93037300  0.98518922  0.48145155    -0.00900
Br566      Br  0.88007429  0.01756121  0.01902922    -0.01000
Br567      Br  0.94417441  0.08767287  0.39326496    -0.00900
Br568      Br  0.89605747  0.12460581  0.43495785    -0.00900
C569        C  0.80279254  0.04752256  0.44384812    -0.02100
C570        C  0.79355005  0.06599882  0.47018665     0.07600
C571        C  0.76409581  0.07193442  0.47253802    -0.02200
C572        C  0.74542636  0.06065647  0.44853086    -0.02200
C573        C  0.75557708  0.04528539  0.42058723     0.07800
C574        C  0.78456763  0.03942883  0.41836253    -0.02400
Br575      Br  0.80129892  0.02422957  0.37865286    -0.00900
Br576      Br  0.84036242  0.03139992  0.44203547    -0.01000
Br577      Br  0.70553396  0.06584535  0.45422269    -0.00900
Br578      Br  0.74894441  0.09571261  0.00719959    -0.00900
C579        C  0.78339936  0.08006919  0.07811707    -0.02100
C580        C  0.79495455  0.06618034  0.04936518     0.07600
C581        C  0.78618281  0.03623801  0.04305367    -0.02200
C582        C  0.76258606  0.02406360  0.05933049    -0.02200
C583        C  0.75242851  0.03733793  0.08849792     0.07800
C584        C  0.76511348  0.06418104  0.09930949    -0.02400
Br585      Br  0.75980271  0.07853689  0.14438744    -0.00900
Br586      Br  0.78911839  0.12122004  0.08949330    -0.01000
Br587      Br  0.74345598  0.99081286  0.03931600    -0.00900
Br588      Br  0.80770720  0.01072623  0.51677303    -0.00900
C589        C  0.87930824  0.41288225  0.16256588    -0.02100
C590        C  0.88245331  0.40184148  0.19545753     0.07600
C591        C  0.91010625  0.39475449  0.20431890    -0.02200
C592        C  0.93276283  0.41038900  0.19005832    -0.02200
C593        C  0.92831184  0.42916477  0.16246756     0.07800
C594        C  0.90185423  0.42826409  0.14702042    -0.02400
Br595      Br  0.89562950  0.44857840  0.10529473    -0.00900
Br596      Br  0.84936929  0.39986530  0.13419834    -0.01000
Br597      Br  0.96987675  0.40401515  0.20715827    -0.00900
Br598      Br  0.91728259  0.35572698  0.22208785    -0.00900
C599        C  0.92363321  0.40808052  0.31815038    -0.02100
C600        C  0.93266848  0.43806804  0.31435948     0.07600
C601        C  0.92180198  0.45546803  0.28815406    -0.02200
C602        C  0.90126233  0.44358132  0.26708203    -0.02200
C603        C  0.89040962  0.41428627  0.27225764     0.07800
C604        C  0.90324329  0.39604961  0.29676606    -0.02400
Br605      Br  0.89606867  0.35349433  0.29882522    -0.00900
Br606      Br  0.93982700  0.38299480  0.35210730    -0.01000
Br607      Br  0.88934684  0.46810462  0.23073328    -0.00900
Br608      Br  0.92780726  0.99807774  0.28397491    -0.00900
C609        C  0.79905509  0.47507564  0.28443849    -0.02100
C610        C  0.79993919  0.44370063  0.28981645     0.07600
C611        C  0.78693723  0.43268254  0.31927588    -0.02200
C612        C  0.77414214  0.45225087  0.34196362    -0.02200
C613        C  0.76656865  0.48141557  0.33168094     0.07800
C614        C  0.78079642  0.49336381  0.30325682    -0.02400
Br615      Br  0.78045548  0.03410406  0.29800268    -0.00900
Br616      Br  0.82470321  0.49423026  0.25425887    -0.01000
Br617      Br  0.77067220  0.43850574  0.38726725    -0.00900
Br618      Br  0.78012877  0.39097494  0.32740180    -0.00900
C619        C  0.75917553  0.43913139  0.22124673    -0.02100
C620        C  0.78841518  0.44081993  0.21407035     0.07600
C621        C  0.79702449  0.46026894  0.18808297    -0.02200
C622        C  0.77752661  0.47767325  0.17032417    -0.02200
C623        C  0.74844613  0.47441108  0.17580833     0.07800
C624        C  0.73946146  0.45470082  0.20139495    -0.02400
Br625      Br  0.69998203  0.44648350  0.20735976    -0.00900
Br626      Br  0.74493597  0.41295919  0.25556558    -0.01000
Br627      Br  0.79138580  0.00538690  0.14155658    -0.00900
Br628      Br  0.83587033  0.46540825  0.17715234    -0.00900
C629        C  0.74580421  0.19725146  0.29362985    -0.02100
C630        C  0.73749023  0.21124125  0.32387057     0.07600
C631        C  0.71187383  0.20151228  0.33792293    -0.02200
C632        C  0.69511441  0.18127649  0.32053920    -0.02200
C633        C  0.69763130  0.17953868  0.28550048     0.07800
C634        C  0.72540471  0.18322028  0.27337147    -0.02400
Br635      Br  0.73705377  0.16370032  0.23310344    -0.00900
Br636      Br  0.78503470  0.19120304  0.28341033    -0.01000
Br637      Br  0.68642804  0.14578076  0.34645443    -0.00900
Br638      Br  0.70318566  0.20776557  0.38433241    -0.00900
C639        C  0.70622975  0.28823945  0.39933460    -0.02100
C640        C  0.73480837  0.28600726  0.40756156     0.07600
C641        C  0.74486582  0.30581127  0.43191242    -0.02200
C642        C  0.72608954  0.32362647  0.45077519    -0.02200
C643        C  0.69666794  0.31931270  0.44848225     0.07800
C644        C  0.68711721  0.30236595  0.42121530    -0.02400
Br645      Br  0.64805178  0.29749062  0.41276688    -0.00900
Br646      Br  0.69340336  0.27740968  0.35590940    -0.01000
Br647      Br  0.74083152  0.35630939  0.47638466    -0.00900
Br648      Br  0.78456054  0.31129484  0.43675439    -0.00900
C649        C  0.79321153  0.29550682  0.30134297    -0.02100
C650        C  0.80571191  0.29003741  0.33195913     0.07600
C651        C  0.82497757  0.31156970  0.34326946    -0.02200
C652        C  0.83002085  0.33850333  0.32486203    -0.02200
C653        C  0.81753653  0.34303651  0.29259424     0.07800
C654        C  0.79598200  0.32284590  0.28472949    -0.02400
Br655      Br  0.76324928  0.33603610  0.26122196    -0.00900
Br656      Br  0.77523788  0.26421168  0.27858920    -0.01000
Br657      Br  0.84682144  0.36982075  0.35139054    -0.00900
Br658      Br  0.84485122  0.30482387  0.38411528    -0.00900
C659        C  0.83896127  0.18472280  0.45930651    -0.02100
C660        C  0.83101316  0.15414579  0.45636220     0.07600
C661        C  0.81240649  0.14743846  0.43023776    -0.02200
C662        C  0.79565614  0.16978589  0.41696897    -0.02200
C663        C  0.80464685  0.20005018  0.41670830     0.07800
C664        C  0.82617549  0.20745535  0.43940244    -0.02400
Br665      Br  0.83556946  0.24866948  0.44749436    -0.00900
Br666      Br  0.87025087  0.19497499  0.48675446    -0.01000
Br667      Br  0.75674965  0.15781602  0.41160070    -0.00900
Br668      Br  0.81066302  0.11103847  0.40527823    -0.00900
C669        C  0.73951180  0.29413622  0.04122551    -0.02100
C670        C  0.73261224  0.28835640  0.07484098     0.07600
C671        C  0.70453987  0.29479736  0.08484980    -0.02200
C672        C  0.68484617  0.30528480  0.06125754    -0.02200
C673        C  0.69282124  0.31021670  0.02758769     0.07800
C674        C  0.71829178  0.29716312  0.01791960    -0.02400
Br675      Br  0.71207633  0.26260068  0.49208995    -0.00900
Br676      Br  0.77758004  0.29853208  0.02553626    -0.01000
Br677      Br  0.64594500  0.30426731  0.07402092    -0.00900
Br678      Br  0.69179405  0.29200124  0.13028797    -0.00900
C679        C  0.69843718  0.21372275  0.15167132    -0.02100
C680        C  0.72202722  0.22807162  0.16482719     0.07600
C681        C  0.71986850  0.23755838  0.19789688    -0.02200
C682        C  0.69951993  0.22463619  0.21950109    -0.02200
C683        C  0.68194516  0.20141622  0.20775048     0.07800
C684        C  0.67706513  0.20315068  0.17306421    -0.02400
Br685      Br  0.63956345  0.20495714  0.15554083    -0.00900
Br686      Br  0.69211632  0.21457782  0.10471769    -0.01000
Br687      Br  0.69046745  0.24555090  0.25973061    -0.00900
Br688      Br  0.74090381  0.27163231  0.21137419    -0.00900
C689        C  0.79022812  0.32374015  0.15881876    -0.02100
C690        C  0.79918189  0.29408342  0.16330520     0.07600
C691        C  0.81666158  0.28783337  0.19076177    -0.02200
C692        C  0.82526378  0.31135034  0.21225000    -0.02200
C693        C  0.81235340  0.34010841  0.21061539     0.07800
C694        C  0.79350091  0.34490131  0.18397692    -0.02400
Br695      Br  0.76787841  0.37784521  0.18241060    -0.00900
Br696      Br  0.77569311  0.33691225  0.11668210    -0.01000
Br697      Br  0.85619566  0.30415816  0.24139167    -0.00900
Br698      Br  0.82799542  0.24720706  0.20021340    -0.00900
C699        C  0.82732450  0.19135055  0.08661258    -0.02100
C700        C  0.79945537  0.20193888  0.08242822     0.07600
C701        C  0.78403103  0.18905014  0.05617042    -0.02200
C702        C  0.79719105  0.17222324  0.03123667    -0.02200
C703        C  0.82491349  0.16185341  0.03482627     0.07800
C704        C  0.83994769  0.17213714  0.06270552    -0.02400
Br705      Br  0.87826242  0.15960889  0.06866083    -0.00900
Br706      Br  0.84584890  0.19487437  0.12860045    -0.01000
Br707      Br  0.77497785  0.16288806  0.99374088    -0.00900
Br708      Br  0.74345380  0.18916270  0.05633301    -0.00900
C709        C  0.78231804  0.22786732  0.60275898     0.86300
C710        C  0.76563640  0.24882588  0.57999752    -0.54000
C711        C  0.74928865  0.26993026  0.59493601     0.09200
C712        C  0.75249105  0.26900851  0.63294708     0.20200
C713        C  0.79991318  0.25040971  0.62290774    -0.54700
C714        C  0.78436611  0.27137622  0.63968754     0.09300
C715        C  0.76032933  0.21535328  0.62749196    -0.54200
C716        C  0.74443288  0.23667435  0.64319984     0.09900
H717        H  0.76560421  0.24569978  0.55347456     0.14400
H718        H  0.74052361  0.28682464  0.64536864     0.00100
H719        H  0.82254132  0.25139042  0.62253799     0.14700
H720        H  0.75690854  0.19146559  0.63127413     0.14500
C721        C  0.79162910  0.22105699  0.89039437     0.86300
C722        C  0.77535256  0.20568383  0.86270437    -0.54000
C723        C  0.75874929  0.22361116  0.84447446     0.09200
C724        C  0.76199098  0.25737449  0.85331155     0.20200
C725        C  0.80957346  0.24368848  0.86984995    -0.54700
C726        C  0.79407499  0.26329886  0.85047230     0.09300
C727        C  0.77034935  0.24058519  0.90947278    -0.54200
C728        C  0.75528615  0.26027867  0.89059610     0.09900
H729        H  0.77730932  0.18209474  0.85670885     0.14400
H730        H  0.74933503  0.27283613  0.83806587     0.00100
H731        H  0.83225180  0.24305000  0.86951420     0.14700
H732        H  0.76815845  0.23959408  0.93625410     0.14500
C733        C  0.82707626  0.39658790  0.71309049     0.45300
H734        H  0.82216236  0.39613452  0.68682751    -0.03800
C735        C  0.83682942  0.39886150  0.77547262     0.45300
H736        H  0.84122480  0.40264626  0.80140773    -0.03800
C737        C  0.80995520  0.42175506  0.73110816    -0.17500
C738        C  0.81967857  0.36679500  0.73088568    -0.17200
C739        C  0.85870751  0.40061032  0.72011351    -0.17600
C740        C  0.81522408  0.42259942  0.76452350    -0.17600
C741        C  0.82435616  0.36766981  0.76535342    -0.17100
C742        C  0.86360090  0.40365617  0.75367909    -0.17500
C743        C  0.83809490  0.10577164  0.53825757     0.45300
H744        H  0.83797191  0.10972934  0.56507544    -0.03800
C745        C  0.84111968  0.09543566  0.97502212     0.45300
H746        H  0.84366948  0.09075323  0.94859443    -0.03800
C747        C  0.81468037  0.08415962  0.52592127    -0.17500
C748        C  0.83464033  0.13527415  0.51767433    -0.17200
C749        C  0.86623084  0.09184492  0.52740409    -0.17600
C750        C  0.81591994  0.07899971  0.99194052    -0.17600
C751        C  0.83658142  0.12905238  0.98277529    -0.17100
C752        C  0.86777157  0.08514551  0.99332791    -0.17500
O753        O  0.01797887  0.03450970  0.87263696    -0.58000
C754        C  0.95397173  0.02056357  0.91806002     0.74600
O755        O  0.97527954  0.46817593  0.82122896    -0.59200
C756        C  0.03047490  0.02883723  0.84569528     0.74600
C757        C  0.03272877  0.44157367  0.90938155     0.77000
Cd758      Cd  0.99382065  0.48276675  0.87619827     1.37500
O759        O  0.95304317  0.02161328  0.88677450    -0.58000
O760        O  0.01741937  0.96330952  0.92416649    -0.56800
C761        C  0.95545912  0.45170046  0.83173385     0.76900
O762        O  0.02242619  0.43595870  0.88138814    -0.59200
O763        O  0.97391009  0.49989235  0.93035144    -0.57700
O764        O  0.03595416  0.49761124  0.84423781    -0.57600
O765        O  0.95276571  0.94897372  0.86564329    -0.56800
C766        C  0.15447945  0.39395010  0.53005440     0.45300
H767        H  0.15406251  0.39574233  0.55670472    -0.03800
C768        C  0.15999296  0.38735405  0.96673677     0.45300
H769        H  0.16339996  0.38391260  0.94027318    -0.03800
C770        C  0.18046004  0.41037299  0.51610558    -0.17500
C771        C  0.15584696  0.36012619  0.51893514    -0.17200
C772        C  0.12968843  0.40941148  0.51172250    -0.17600
C773        C  0.18368990  0.40786145  0.98084407    -0.17600
C774        C  0.16152008  0.35721531  0.98571617    -0.17100
C775        C  0.13111150  0.40104713  0.97743309    -0.17500
C776        C  0.14498805  0.09175240  0.71880068     0.45300
H777        H  0.14189320  0.08834128  0.69217729    -0.03800
C778        C  0.14950974  0.09810656  0.78187991     0.45300
H779        H  0.15108634  0.10113385  0.80890338    -0.03800
C780        C  0.17035446  0.07416102  0.73303056    -0.17500
C781        C  0.14970287  0.12512256  0.72828810    -0.17200
C782        C  0.11891718  0.08072013  0.73847959    -0.17600
C783        C  0.17224192  0.07649205  0.76710046    -0.17600
C784        C  0.15253175  0.12841013  0.76243884    -0.17100
C785        C  0.12082284  0.08484308  0.77213424    -0.17500
C786        C  0.19835786  0.22153328  0.85211504     0.86300
C787        C  0.21939942  0.20319490  0.87205849    -0.54000
C788        C  0.23740048  0.21939391  0.89059330     0.09200
C789        C  0.23246553  0.25367011  0.88783599     0.20200
C790        C  0.18358685  0.24079050  0.87958363    -0.54700
C791        C  0.20137278  0.25912215  0.89799860     0.09300
C792        C  0.21464514  0.24604480  0.83312642    -0.54200
C793        C  0.23331219  0.26137922  0.85123371     0.09900
H794        H  0.21872497  0.17887203  0.87268641     0.14400
H795        H  0.24899219  0.26668372  0.89924858     0.00100
H796        H  0.16124529  0.24102489  0.88323641     0.14700
H797        H  0.21190634  0.25077795  0.80693094     0.14500
C798        C  0.19048542  0.22335408  0.64577143     0.86300
C799        C  0.20949900  0.23977703  0.67053098    -0.54000
C800        C  0.22721697  0.26083156  0.65673456     0.09200
C801        C  0.22463186  0.26277512  0.61836305     0.20200
C802        C  0.17554247  0.24806134  0.62633366    -0.54700
C803        C  0.19293915  0.26857847  0.61144255     0.09300
C804        C  0.21171573  0.21038802  0.62074225    -0.54200
C805        C  0.23007271  0.23006854  0.60620771     0.09900
H806        H  0.20933426  0.23460667  0.69683405     0.14400
H807        H  0.23864724  0.28023807  0.60805184     0.00100
H808        H  0.15298109  0.24845054  0.62316375     0.14700
H809        H  0.21302813  0.18677717  0.61549378     0.14500
O810        O  0.96496615  0.03629858  0.62444819    -0.58000
C811        C  0.02970344  0.01829497  0.66937605     0.74600
O812        O  0.95585172  0.44962892  0.61883076    -0.59200
C813        C  0.95654345  0.03425444  0.59501615     0.74600
C814        C  0.03527738  0.46327927  0.58260560     0.77000
Cd815      Cd  0.99219115  0.48831686  0.62489294     1.37500
O816        O  0.00844976  0.03155385  0.65800081    -0.58000
O817        O  0.02557776  0.99033489  0.57819370    -0.56800
C818        C  0.95062931  0.44623278  0.64932786     0.76900
O819        O  0.02271484  0.44752059  0.60432895    -0.59200
O820        O  0.03339776  0.49024777  0.66123843    -0.57700
O821        O  0.96900304  0.51426506  0.57782611    -0.57600
O822        O  0.96406981  0.96479364  0.66961885    -0.56800
C823        C  0.32850695  0.35734861  0.78460850     0.45300
H824        H  0.32619541  0.35822611  0.81150637    -0.03800
C825        C  0.33080508  0.35172392  0.72152533     0.45300
H826        H  0.33164924  0.34721535  0.69613083    -0.03800
C827        C  0.30541307  0.33648481  0.77052284    -0.17500
C828        C  0.32659098  0.38858719  0.76641637    -0.17200
C829        C  0.35681765  0.34427946  0.77328660    -0.17600
C830        C  0.30647359  0.33339806  0.73668013    -0.17600
C831        C  0.32471901  0.38478569  0.73164774    -0.17100
C832        C  0.35851830  0.34205342  0.73925035    -0.17500
C833        C  0.34571547  0.15157448  0.97391352     0.45300
H834        H  0.35233818  0.15218843  0.94831175    -0.03800
C835        C  0.33477603  0.15306574  0.53565547     0.45300
H836        H  0.33074697  0.15429778  0.56247670    -0.03800
C837        C  0.32043776  0.17162934  0.98240250    -0.17500
C838        C  0.33813254  0.11969392  0.98763855    -0.17200
C839        C  0.37042255  0.16418728  0.99349612    -0.17600
C840        C  0.31309344  0.17253488  0.51551102    -0.17600
C841        C  0.33333391  0.12024481  0.52243637    -0.17100
C842        C  0.36403624  0.16496452  0.52542037    -0.17500
C843        C  0.29366706  0.02548067  0.89695853     0.86300
C844        C  0.27729649  0.00296568  0.91840950    -0.54000
C845        C  0.26165826  0.48390825  0.90276618     0.09200
C846        C  0.26390504  0.48817372  0.86474270     0.20200
C847        C  0.31112827  0.00580206  0.87258199    -0.54700
C848        C  0.29560257  0.48672685  0.85609685     0.09300
C849        C  0.27170199  0.03935207  0.87340166    -0.54200
C850        C  0.25538518  0.01947533  0.85615250     0.09900
H851        H  0.27693525  0.00451484  0.94520062     0.14400
H852        H  0.25160493  0.47070552  0.85240293     0.00100
H853        H  0.33329100  0.00855257  0.86767636     0.14700
H854        H  0.26954643  0.06349081  0.87055901     0.14500
C855        C  0.29299353  0.02122120  0.60334835     0.86300
C856        C  0.27086963  0.03866880  0.62369685    -0.54000
C857        C  0.25159137  0.02092581  0.64004464     0.09200
C858        C  0.25647271  0.48789952  0.63242676     0.20200
C859        C  0.30549479  0.99897338  0.62823243    -0.54700
C860        C  0.28706495  0.48161421  0.64272297     0.09300
C861        C  0.27482026  0.00185762  0.58015441    -0.54200
C862        C  0.25623744  0.48449855  0.59461056     0.09900
H863        H  0.27088324  0.06295425  0.62575249     0.14400
H864        H  0.24071730  0.47330528  0.64479423     0.00100
H865        H  0.32784522  0.99739845  0.63262876     0.14700
H866        H  0.27555816  0.00304326  0.55345672     0.14500
O867        O  0.47763293  0.24314971  0.93190566    -0.58000
C868        C  0.53147841  0.22174495  0.84443982     0.74600
O869        O  0.46806015  0.27948782  0.82968763    -0.59200
C870        C  0.45929321  0.22622410  0.91945972     0.74600
C871        C  0.53527039  0.30598788  0.90497779     0.77000
Cd872      Cd  0.49513485  0.26301528  0.87853616     1.37500
O873        O  0.52781640  0.22052168  0.87543032    -0.58000
O874        O  0.52308375  0.28680990  0.92333500    -0.56800
C875        C  0.45125747  0.29595705  0.84581048     0.76900
O876        O  0.52793622  0.30617194  0.87499983    -0.59200
O877        O  0.51718542  0.24088484  0.82871107    -0.57700
O878        O  0.45850710  0.22534945  0.88822155    -0.57600
O879        O  0.45561959  0.29846954  0.87651141    -0.56800
C880        C  0.70275457  0.03188318  0.84953141     0.86300
C881        C  0.72582949  0.01415979  0.83137927    -0.54000
C882        C  0.74462589  0.49791229  0.84816945     0.09200
C883        C  0.73714740  0.50083808  0.88543274     0.20200
C884        C  0.68680282  0.00799782  0.86970608    -0.54700
C885        C  0.70585939  0.49187110  0.88899656     0.09300
C886        C  0.71950954  0.05010660  0.87532819    -0.54200
C887        C  0.73642329  0.03283091  0.89524948     0.09900
H888        H  0.72958242  0.01554746  0.80521900     0.14400
H889        H  0.75089328  0.48885313  0.90277610     0.00100
H890        H  0.66630064  0.50265580  0.86691363     0.14700
H891        H  0.71869966  0.07440194  0.87692895     0.14500
C892        C  0.64773247  0.15198757  0.77928203     0.45300
H893        H  0.64802945  0.15114428  0.80629139    -0.03800
C894        C  0.64343027  0.15584994  0.71614843     0.45300
H895        H  0.64080119  0.15626295  0.68925704    -0.03800
C896        C  0.67188630  0.17071869  0.76353013    -0.17500
C897        C  0.65079062  0.12124160  0.76269445    -0.17200
C898        C  0.61945631  0.16545708  0.76781747    -0.17600
C899        C  0.66726292  0.17641295  0.72990583    -0.17600
C900        C  0.64855846  0.12294655  0.72847261    -0.17100
C901        C  0.61717464  0.16704140  0.73405124    -0.17500
C902        C  0.68600479  0.02670508  0.64368118     0.86300
C903        C  0.70645510  0.04260565  0.61948928    -0.54000
C904        C  0.72678247  0.02536513  0.60594813     0.09200
C905        C  0.72558421  0.49101836  0.61574595     0.20200
C906        C  0.67403198  0.00075404  0.62316506    -0.54700
C907        C  0.69513770  0.48187922  0.60711966     0.09300
C908        C  0.70567998  0.01122488  0.66866037    -0.54200
C909        C  0.72699438  0.49160425  0.65413150     0.09900
H910        H  0.70659050  0.06640332  0.61455477     0.14400
H911        H  0.74192860  0.47684059  0.60413537     0.00100
H912        H  0.65291722  0.49657762  0.61933528     0.14700
H913        H  0.70424718  0.01489650  0.69512610     0.14500
C914        C  0.66042497  0.35997913  0.95589205     0.45300
H915        H  0.66195012  0.36000471  0.92918842    -0.03800
C916        C  0.65594227  0.35945125  0.51990179     0.45300
H917        H  0.65551653  0.35913021  0.54721054    -0.03800
C918        C  0.67912270  0.33458056  0.97048038    -0.17500
C919        C  0.67108537  0.38937951  0.97095714    -0.17200
C920        C  0.62993832  0.35602495  0.96947446    -0.17600
C921        C  0.67462549  0.33412141  0.50517768    -0.17600
C922        C  0.66724835  0.39030145  0.50623497    -0.17100
C923        C  0.62684145  0.35471386  0.50408908    -0.17500
O924        O  0.46733258  0.21709751  0.61785933    -0.58000
C925        C  0.53001554  0.22856254  0.65955732     0.74600
O926        O  0.53347358  0.30003520  0.61075382    -0.59200
C927        C  0.45393742  0.22370193  0.59200564     0.74600
C928        C  0.45331974  0.30129447  0.65810506     0.77000
Cd929      Cd  0.49314591  0.26550493  0.62019172     1.37500
O930        O  0.52917598  0.22598693  0.62834014    -0.58000
O931        O  0.47474017  0.28944214  0.67079494    -0.54000
C932        C  0.53369551  0.29948227  0.57948773     0.76900
O933        O  0.45183016  0.30014004  0.62693236    -0.59200
O934        O  0.51294625  0.24697785  0.67236477    -0.57700
O935        O  0.46008245  0.24830941  0.57794982    -0.57600
O936        O  0.51418925  0.28439470  0.56679425    -0.56800
C937        C  0.59199930  0.35417952  0.55324341    -0.02100
C938        C  0.60270296  0.34086153  0.52386626     0.07600
C939        C  0.59108578  0.31300899  0.51425252    -0.02200
C940        C  0.56724299  0.30093519  0.53047801    -0.02200
C941        C  0.55621255  0.31466538  0.55927252     0.07800
C942        C  0.56880132  0.34146729  0.57039925    -0.02400
Br943      Br  0.55340964  0.36221640  0.60837823    -0.00900
Br944      Br  0.61055051  0.38851857  0.06999618    -0.01000
Br945      Br  0.55089254  0.26456709  0.51326491    -0.00900
Br946      Br  0.61047937  0.28818325  0.48279564    -0.00900
C947        C  0.66024460  0.44213202  0.53395242    -0.02100
C948        C  0.67568217  0.41505438  0.53048301     0.07600
C949        C  0.69669833  0.40973503  0.55458722    -0.02200
C950        C  0.70168599  0.43033118  0.58057187    -0.02200
C951        C  0.68829174  0.45863382  0.58113099     0.07800
C952        C  0.66877936  0.46485595  0.55590787    -0.02400
Br953      Br  0.65086844  0.00474319  0.55085235    -0.00900
Br954      Br  0.62522153  0.44441059  0.01689702    -0.01000
Br955      Br  0.72556958  0.41826650  0.61660133    -0.00900
Br956      Br  0.71866836  0.37377686  0.55395309    -0.00900
C957        C  0.57741035  0.16652780  0.69264576    -0.02100
C958        C  0.59378776  0.18236203  0.71577464     0.07600
C959        C  0.58924666  0.21355356  0.71943259    -0.02200
C960        C  0.56758242  0.22817139  0.70228545    -0.02200
C961        C  0.55085324  0.21216043  0.67991058     0.07800
C962        C  0.55568229  0.18121690  0.67541555    -0.02400
Br963      Br  0.53157193  0.15853077  0.64680270    -0.00900
Br964      Br  0.58514630  0.12497699  0.68304768    -0.01000
Br965      Br  0.56248655  0.27096960  0.70776027    -0.00900
Br966      Br  0.61548810  0.23784555  0.74306091    -0.00900
C967        C  0.64960240  0.04309841  0.68959473    -0.02100
C968        C  0.66478699  0.04903517  0.65992660     0.07600
C969        C  0.66443645  0.07906664  0.64930781    -0.02200
C970        C  0.66407947  0.10181608  0.67263548    -0.02200
C971        C  0.65127164  0.09700478  0.70403448     0.07800
C972        C  0.64058232  0.06746391  0.71007535    -0.02400
Br973      Br  0.61213456  0.06046575  0.74335477    -0.00900
Br974      Br  0.63876317  0.00254869  0.69991366    -0.01000
Br975      Br  0.68962953  0.13373949  0.66262812    -0.00900
Br976      Br  0.65676595  0.08948985  0.60386759    -0.00900
C977        C  0.66245446  0.06989957  0.83793520    -0.02100
C978        C  0.68401504  0.05074907  0.82620760     0.07600
C979        C  0.68842182  0.05044030  0.79160268    -0.02200
C980        C  0.68197314  0.07575462  0.77290049    -0.02200
C981        C  0.65992125  0.09464054  0.78327135     0.07800
C982        C  0.64829086  0.08910122  0.81542861    -0.02400
Br983      Br  0.61329702  0.10691186  0.82935316    -0.00900
Br984      Br  0.65206846  0.07051975  0.88416006    -0.01000
Br985      Br  0.70849006  0.08568699  0.73849691    -0.00900
Br986      Br  0.68690600  0.01324994  0.76762462    -0.00900
C987        C  0.69608615  0.41171688  0.91815357    -0.02100
C988        C  0.67997478  0.41527927  0.94816852     0.07600
C989        C  0.66536956  0.44263322  0.95005537    -0.02200
C990        C  0.67768342  0.46859296  0.93629645    -0.02200
C991        C  0.69578941  0.46564488  0.90876334     0.07800
C992        C  0.70099685  0.43665808  0.89713338    -0.02400
Br993      Br  0.70799649  0.43104317  0.85026083    -0.00900
Br994      Br  0.71090376  0.37473811  0.90171905    -0.01000
Br995      Br  0.65641894  0.00674370  0.94629294    -0.00900
Br996      Br  0.62274671  0.43915807  0.43932616    -0.00900
C997        C  0.54742592  0.18070106  0.80630062    -0.02100
C998        C  0.55361786  0.20418551  0.82804349     0.07600
C999        C  0.58155186  0.21220222  0.83357751    -0.02200
C1000       C  0.60315699  0.19923712  0.81472711    -0.02200
C1001       C  0.59719840  0.17663830  0.79130728     0.07800
C1002       C  0.56931477  0.16596038  0.78923177    -0.02400
Br1003     Br  0.56117699  0.12960586  0.76573476    -0.00900
Br1004     Br  0.50906481  0.16852394  0.80050880    -0.01000
Br1005     Br  0.63993270  0.21541160  0.82016400    -0.00900
Br1006     Br  0.59007450  0.24237576  0.86619430    -0.00900
C1007       C  0.55431386  0.34044453  0.94877334    -0.02100
C1008       C  0.55746042  0.32631150  0.91778369     0.07600
C1009       C  0.58166004  0.33321995  0.89863333    -0.02200
C1010       C  0.60418128  0.34891621  0.91301238    -0.02200
C1011       C  0.60373133  0.35472516  0.94761328     0.07800
C1012       C  0.57669661  0.35706118  0.96178824    -0.02400
Br1013     Br  0.56633588  0.39290000  0.49192263    -0.00900
Br1014     Br  0.51924218  0.33896054  0.97280141    -0.01000
Br1015     Br  0.62881138  0.37022190  0.88266762    -0.00900
Br1016     Br  0.58469278  0.32156658  0.85272449    -0.00900
C1017       C  0.42287017  0.22506790  0.96399479    -0.02100
C1018       C  0.43871872  0.20959134  0.94015346     0.07600
C1019       C  0.43287223  0.17923396  0.93399074    -0.02200
C1020       C  0.41096688  0.16445098  0.95129285    -0.02200
C1021       C  0.39496370  0.17958402  0.97593858     0.07800
C1022       C  0.40115348  0.21034602  0.98149556    -0.02400
Br1023     Br  0.37700387  0.23587204  0.50579268    -0.00900
Br1024     Br  0.42902301  0.26770297  0.97031409    -0.01000
Br1025     Br  0.40333618  0.12360534  0.93961550    -0.00900
Br1026     Br  0.45545828  0.15765075  0.90201277    -0.00900
C1027       C  0.41329574  0.16316978  0.54779598    -0.02100
C1028       C  0.38583232  0.17508814  0.54962165     0.07600
C1029       C  0.38051647  0.19866634  0.57221675    -0.02200
C1030       C  0.40303727  0.21459114  0.58579665    -0.02200
C1031       C  0.43071619  0.20501123  0.58010846     0.07800
C1032       C  0.43571439  0.17815810  0.56300368    -0.02400
Br1033     Br  0.47335384  0.16285178  0.55921405    -0.00900
Br1034     Br  0.41987009  0.12522118  0.52650237    -0.01000
Br1035     Br  0.39610843  0.25080499  0.61073499    -0.00900
Br1036     Br  0.34320272  0.21128045  0.58367550    -0.00900
C1037       C  0.29989968  0.09509425  0.95391282    -0.02100
C1038       C  0.32795931  0.09504377  0.96480371     0.07600
C1039       C  0.34470711  0.06991317  0.95631757    -0.02200
C1040       C  0.33514828  0.04801628  0.93321032    -0.02200
C1041       C  0.30740037  0.04950194  0.92020274     0.07800
C1042       C  0.28943297  0.07081624  0.93574158    -0.02400
Br1043     Br  0.25035460  0.06191306  0.94331031    -0.00900
Br1044     Br  0.27287514  0.12479240  0.96881814    -0.01000
Br1045     Br  0.35885417  0.01367598  0.92561071    -0.00900
Br1046     Br  0.37873900  0.06288432  0.98055094    -0.00900
C1047       C  0.31660492  0.06555139  0.53280937    -0.02100
C1048       C  0.32893212  0.09230880  0.54493934     0.07600
C1049       C  0.33715535  0.09095688  0.57910696    -0.02200
C1050       C  0.32742685  0.06681483  0.59975832    -0.02200
C1051       C  0.31490138  0.04137837  0.58524128     0.07800
C1052       C  0.31932332  0.03926769  0.55102459    -0.02400
Br1053     Br  0.32745867  0.00231236  0.52861622    -0.00900
Br1054     Br  0.27670072  0.06877445  0.02034364    -0.01000
Br1055     Br  0.33437893  0.06689270  0.64651231    -0.00900
Br1056     Br  0.36301435  0.11884841  0.59825612    -0.00900
C1057       C  0.41771586  0.29311447  0.70255440    -0.02100
C1058       C  0.43003548  0.31271619  0.67917136     0.07600
C1059       C  0.41995889  0.34226409  0.67634611    -0.02200
C1060       C  0.39770450  0.35223547  0.69695926    -0.02200
C1061       C  0.38444548  0.33231204  0.71996957     0.07800
C1062       C  0.39571074  0.30291668  0.72331525    -0.02400
Br1063     Br  0.38201186  0.27477942  0.75575366    -0.00900
Br1064     Br  0.42963338  0.25149941  0.70426185    -0.01000
Br1065     Br  0.38861181  0.39443458  0.69606269    -0.00900
Br1066     Br  0.43741672  0.36935713  0.64487759    -0.00900
C1067       C  0.43096648  0.33359125  0.80643945    -0.02100
C1068       C  0.42703935  0.31058205  0.82993137     0.07600
C1069       C  0.39971028  0.30238307  0.83956932    -0.02200
C1070       C  0.37639152  0.31539894  0.82375068    -0.02200
C1071       C  0.38026649  0.33605164  0.79697245     0.07800
C1072       C  0.40762432  0.34746728  0.79174550    -0.02400
Br1073     Br  0.41271807  0.38618695  0.77174581    -0.00900
Br1074     Br  0.46837422  0.34678467  0.79519742    -0.01000
Br1075     Br  0.34020682  0.30527634  0.84146353    -0.00900
Br1076     Br  0.39436887  0.27166570  0.87327073    -0.00900
C1077       C  0.32588632  0.44804937  0.77722852    -0.02100
C1078       C  0.32646024  0.41749055  0.78810095     0.07600
C1079       C  0.32742985  0.41422971  0.82297055    -0.02200
C1080       C  0.31403390  0.43490889  0.84369952    -0.02200
C1081       C  0.30796529  0.46397178  0.83230731     0.07800
C1082       C  0.31634612  0.47113860  0.79932628    -0.02400
Br1083     Br  0.31582578  0.51248026  0.78513828    -0.00900
Br1084     Br  0.34623288  0.45994528  0.73791002    -0.01000
Br1085     Br  0.30659608  0.42275418  0.88834887    -0.00900
Br1086     Br  0.35914190  0.39446190  0.84286940    -0.00900
C1087       C  0.32179642  0.40912784  0.67174445    -0.02100
C1088       C  0.31269352  0.40695525  0.70597243     0.07600
C1089       C  0.29004392  0.42597602  0.71506876    -0.02200
C1090       C  0.28214546  0.45048949  0.69499833    -0.02200
C1091       C  0.29558131  0.45594386  0.66441894     0.07800
C1092       C  0.31481832  0.43457547  0.65240360    -0.02400
Br1093     Br  0.32881091  0.43793786  0.60693293    -0.00900
Br1094     Br  0.33803622  0.37703357  0.64538813    -0.01000
Br1095     Br  0.25301452  0.47683263  0.71030874    -0.00900
Br1096     Br  0.26660150  0.41699286  0.75266765    -0.00900
C1097       C  0.25650664  0.31677660  0.72021935    -0.02100
C1098       C  0.28604643  0.31492405  0.71561395     0.07600
C1099       C  0.29579872  0.29514748  0.69039751    -0.02200
C1100       C  0.27679679  0.27857484  0.67075685    -0.02200
C1101       C  0.24757682  0.27924678  0.67707458     0.07800
C1102       C  0.23794705  0.29761808  0.70321041    -0.02400
Br1103     Br  0.19908466  0.29696859  0.71679898    -0.00900
Br1104     Br  0.23972829  0.34816675  0.74581233    -0.01000
Br1105     Br  0.29178170  0.25305290  0.63672839    -0.00900
Br1106     Br  0.33527154  0.28796339  0.68320108    -0.00900
C1107       C  0.26365585  0.23368177  0.55499244    -0.02100
C1108       C  0.25280644  0.21809218  0.58288916     0.07600
C1109       C  0.26341093  0.18889324  0.58818852    -0.02200
C1110       C  0.27669497  0.17326198  0.56237060    -0.02200
C1111       C  0.28962730  0.18862691  0.53526978     0.07800
C1112       C  0.28462099  0.22027926  0.53453914    -0.02400
Br1113     Br  0.31209145  0.24718617  0.02150206    -0.00900
Br1114     Br  0.25238998  0.27406530  0.54537796    -0.01000
Br1115     Br  0.27442126  0.13061541  0.56565512    -0.00900
Br1116     Br  0.26567557  0.17197427  0.63249875    -0.00900
C1117       C  0.30031243  0.17264809  0.92072612    -0.02100
C1118       C  0.30331406  0.18519317  0.95375753     0.07600
C1119       C  0.28967398  0.21256694  0.95808269    -0.02200
C1120       C  0.26319300  0.21538252  0.94402943    -0.02200
C1121       C  0.25966135  0.20543554  0.91158746     0.07800
C1122       C  0.27829044  0.18297575  0.90003165    -0.02400
Br1123     Br  0.27215340  0.16316035  0.85807907    -0.00900
Br1124     Br  0.32423515  0.14291420  0.89957916    -0.01000
Br1125     Br  0.23113517  0.21314421  0.97291835    -0.00900
Br1126     Br  0.31278999  0.24093326  0.43479316    -0.00900
C1127       C  0.27623135  0.26966625  0.81813180    -0.02100
C1128       C  0.25370797  0.28200462  0.83554864     0.07600
C1129       C  0.24971475  0.31318777  0.83494763    -0.02200
C1130       C  0.26819796  0.33140580  0.81617504    -0.02200
C1131       C  0.28694984  0.31803643  0.79296969     0.07800
C1132       C  0.29003465  0.28649158  0.79380796    -0.02400
Br1133     Br  0.31427872  0.26497107  0.76443133    -0.00900
Br1134     Br  0.29227164  0.23239227  0.83248260    -0.01000
Br1135     Br  0.26663117  0.37400715  0.82261532    -0.00900
Br1136     Br  0.21927488  0.33080864  0.85970880    -0.00900
C1137       C  0.21949992  0.05861608  0.84010004    -0.02100
C1138       C  0.23231045  0.03089842  0.83310466     0.07600
C1139       C  0.22223570  0.01590887  0.80462905    -0.02200
C1140       C  0.20078419  0.02916236  0.78495846    -0.02200
C1141       C  0.19341201  0.06003019  0.78880358     0.07800
C1142       C  0.20529905  0.07475697  0.81603083    -0.02400
Br1143     Br  0.20531836  0.11722939  0.82232165    -0.00900
Br1144     Br  0.20822385  0.06848745  0.88403414    -0.01000
Br1145     Br  0.17967654  0.00295069  0.75703697    -0.00900
Br1146     Br  0.24168140  0.48240025  0.79106388    -0.00900
C1147       C  0.22071621  0.06450548  0.71276471    -0.02100
C1148       C  0.19150788  0.05873520  0.71049693     0.07600
C1149       C  0.18251044  0.03904191  0.68514990    -0.02200
C1150       C  0.20178500  0.02722880  0.66187461    -0.02200
C1151       C  0.23068623  0.03319453  0.66444513     0.07800
C1152       C  0.23997511  0.05036738  0.69132548    -0.02400
Br1153     Br  0.27938781  0.05205345  0.70138260    -0.00900
Br1154     Br  0.23582880  0.09357465  0.74259879    -0.01000
Br1155     Br  0.18783610  0.00320064  0.62628324    -0.00900
Br1156     Br  0.14407200  0.02618095  0.68230250    -0.00900
C1157       C  0.08140791  0.07865346  0.69449690    -0.02100
C1158       C  0.09510156  0.06490335  0.72162346     0.07600
C1159       C  0.08694733  0.03538289  0.73119517    -0.02200
C1160       C  0.06455663  0.02089892  0.71546362    -0.02200
C1161       C  0.05138521  0.03455609  0.68820032     0.07800
C1162       C  0.06036582  0.06323134  0.67736076    -0.02400
Br1163     Br  0.04570359  0.08079657  0.63711129    -0.00900
Br1164     Br  0.09017102  0.11922571  0.68075767    -0.01000
Br1165     Br  0.05337939  0.48022743  0.73110808    -0.00900
Br1166     Br  0.10811458  0.01235597  0.76276398    -0.00900
C1167       C  0.16472665  0.14581708  0.67022246    -0.02100
C1168       C  0.15223431  0.15025612  0.70219139     0.07600
C1169       C  0.14292860  0.18001838  0.70881507    -0.02200
C1170       C  0.15409370  0.20468406  0.69036390    -0.02200
C1171       C  0.17063377  0.19946053  0.66169498     0.07800
C1172       C  0.16908062  0.17029015  0.64883402    -0.02400
Br1173     Br  0.16376510  0.16435694  0.60185102    -0.00900
Br1174     Br  0.18121136  0.10939874  0.65401068    -0.01000
Br1175     Br  0.14452199  0.24498484  0.70274182    -0.00900
Br1176     Br  0.11229654  0.18696275  0.73914229    -0.00900
C1177       C  0.15776753  0.18533788  0.83356936    -0.02100
C1178       C  0.18360582  0.20011876  0.82692677     0.07600
C1179       C  0.19858249  0.19074279  0.79758521    -0.02200
C1180       C  0.18657497  0.17126957  0.77417912    -0.02200
C1181       C  0.16086171  0.15669571  0.78105041     0.07800
C1182       C  0.14622520  0.16497376  0.81044109    -0.02400
Br1183     Br  0.10940837  0.14890328  0.81936076    -0.00900
Br1184     Br  0.14046451  0.18660100  0.87690433    -0.01000
Br1185     Br  0.20839089  0.16215428  0.73484279    -0.00900
Br1186     Br  0.23837561  0.19821494  0.79080446    -0.00900
C1187       C  0.21465717  0.41700424  0.56357014    -0.02100
C1188       C  0.19852865  0.42979405  0.53787059     0.07600
C1189       C  0.19900443  0.46134021  0.53408340    -0.02200
C1190       C  0.21806099  0.47902272  0.55197827    -0.02200
C1191       C  0.23567709  0.46573248  0.57593847     0.07800
C1192       C  0.23303790  0.43469014  0.58229148    -0.02400
Br1193     Br  0.25532419  0.41518502  0.61554009    -0.00900
Br1194     Br  0.21316053  0.37489996  0.57315589    -0.01000
Br1195     Br  0.21695222  0.02282179  0.54736342    -0.00900
Br1196     Br  0.17062322  0.48126102  0.50882045    -0.00900
C1197       C  0.19498474  0.44452722  0.93348549    -0.02100
C1198       C  0.20449126  0.42515471  0.95897034     0.07600
C1199       C  0.23374533  0.42448375  0.96461234    -0.02200
C1200       C  0.25213211  0.44444831  0.94782352    -0.02200
C1201       C  0.24252909  0.46219616  0.92082713     0.07800
C1202       C  0.21371920  0.46118906  0.91340057    -0.02400
Br1203     Br  0.19804959  0.48523498  0.87820722    -0.00900
Br1204     Br  0.15627742  0.45381425  0.92876579    -0.01000
Br1205     Br  0.29013891  0.44753942  0.96408029    -0.00900
Br1206     Br  0.25011540  0.39545966  0.99375160    -0.00900
C1207       C  0.06387154  0.45794730  0.53020608    -0.02100
C1208       C  0.06014453  0.45181860  0.56419625     0.07600
C1209       C  0.08284640  0.43964357  0.58184554    -0.02200
C1210       C  0.10790552  0.43212167  0.56509690    -0.02200
C1211       C  0.10849053  0.43001448  0.52998562     0.07800
C1212       C  0.08861753  0.44869023  0.51369903    -0.02400
Br1213     Br  0.09979553  0.46994272  0.97273208    -0.00900
Br1214     Br  0.03540171  0.47957949  0.50605138    -0.01000
Br1215     Br  0.14146556  0.44277921  0.58868216    -0.00900
Br1216     Br  0.08179046  0.43778828  0.62971894    -0.00900
C1217       C  0.15401388  0.31927451  0.93982679    -0.02100
C1218       C  0.17022070  0.32960051  0.96640280     0.07600
C1219       C  0.19693272  0.31711875  0.97044491    -0.02200
C1220       C  0.20773149  0.29519761  0.94856728    -0.02200
C1221       C  0.19133644  0.28412927  0.92158077     0.07800
C1222       C  0.16497845  0.29865008  0.91655328    -0.02400
Br1223     Br  0.14574755  0.29716786  0.87462622    -0.00900
Br1224     Br  0.11509073  0.33038441  0.93729002    -0.01000
Br1225     Br  0.24646959  0.28539057  0.95641861    -0.00900
Br1226     Br  0.21936961  0.33033082  0.00652794    -0.00900
C1227       C  0.15879420  0.30322641  0.53479734    -0.02100
C1228       C  0.15581628  0.33366974  0.54400364     0.07600
C1229       C  0.15578851  0.33852276  0.57858860    -0.02200
C1230       C  0.17070005  0.31893259  0.59970346    -0.02200
C1231       C  0.18124576  0.29145668  0.58780053     0.07800
C1232       C  0.17327639  0.28284714  0.55560390    -0.02400
Br1233     Br  0.18006211  0.24248819  0.54061518    -0.00900
Br1234     Br  0.13108491  0.28778811  0.00843312    -0.01000
Br1235     Br  0.17570617  0.32992759  0.64504972    -0.00900
Br1236     Br  0.12666601  0.36246101  0.59862711    -0.00900
C1237       C  0.08007849  0.04595254  0.84341570    -0.02100
C1238       C  0.05260648  0.04861322  0.83172893     0.07600
C1239       C  0.04704137  0.06863998  0.80565036    -0.02200
C1240       C  0.06926013  0.08421770  0.78985420    -0.02200
C1241       C  0.09756652  0.07658540  0.79665652     0.07800
C1242       C  0.10265403  0.05858564  0.82527273    -0.02400
Br1243     Br  0.13966668  0.04705806  0.83859087    -0.00900
Br1244     Br  0.08659361  0.02395666  0.88403620    -0.01000
Br1245     Br  0.06037146  0.11769314  0.76141250    -0.00900
Br1246     Br  0.00892748  0.07455515  0.79168507    -0.00900
C1247       C  0.08172911  0.42144260  0.90567717    -0.02100
C1248       C  0.05622428  0.42357870  0.92334459     0.07600
C1249       C  0.05378973  0.40844526  0.95397054    -0.02200
C1250       C  0.07793096  0.39636622  0.96928178    -0.02200
C1251       C  0.10497516  0.40133670  0.95519136     0.07800
C1252       C  0.10538284  0.40802768  0.92043186    -0.02400
Br1253     Br  0.13374352  0.39376050  0.88967154    -0.00900
Br1254     Br  0.08494688  0.43832028  0.86152942    -0.01000
Br1255     Br  0.07385956  0.37017435  0.50773140    -0.00900
Br1256     Br  0.01740025  0.40378515  0.97436446    -0.00900
C1257       C  0.90729884  0.05174963  0.59564496    -0.02100
C1258       C  0.93451920  0.05429015  0.58235786     0.07600
C1259       C  0.93995349  0.07502786  0.55679666    -0.02200
C1260       C  0.91767802  0.09128099  0.54272043    -0.02200
C1261       C  0.88954964  0.08398188  0.55104995     0.07800
C1262       C  0.88470163  0.06590327  0.57974753    -0.02400
Br1263     Br  0.84782687  0.05667388  0.59643307    -0.00900
Br1264     Br  0.90075216  0.02673121  0.63439558    -0.01000
Br1265     Br  0.92716550  0.12221707  0.01275330    -0.00900
Br1266     Br  0.97788330  0.08116638  0.54137966    -0.00900
C1267       C  0.89978437  0.03960672  0.98481473    -0.02100
C1268       C  0.89140279  0.06905789  0.97540565     0.07600
C1269       C  0.90483861  0.08263738  0.94759475    -0.02200
C1270       C  0.92608202  0.06732532  0.92993147    -0.02200
C1271       C  0.93388310  0.03786226  0.93906814     0.07800
C1272       C  0.92109499  0.02441053  0.96713637    -0.02400
Br1273     Br  0.93121818  0.98403716  0.98047342    -0.00900
Br1274     Br  0.87912806  0.01889325  0.51934941    -0.01000
Br1275     Br  0.94569443  0.08773427  0.89414365    -0.00900
Br1276     Br  0.89525980  0.12283868  0.93356474    -0.00900
C1277       C  0.80288349  0.04470514  0.94525142    -0.02100
C1278       C  0.79388652  0.06384021  0.97103209     0.07600
C1279       C  0.76476233  0.07119047  0.97278014    -0.02200
C1280       C  0.74602487  0.06074693  0.94844176    -0.02200
C1281       C  0.75603731  0.04458228  0.92092993     0.07800
C1282       C  0.78479154  0.03723093  0.91948973    -0.02400
Br1283     Br  0.80191713  0.02209510  0.87996359    -0.00900
Br1284     Br  0.84031180  0.02816463  0.94379781    -0.01000
Br1285     Br  0.70640010  0.06859393  0.95297932    -0.00900
Br1286     Br  0.74731046  0.09515760  0.50744299    -0.00900
C1287       C  0.78228273  0.08164707  0.57769752    -0.02100
C1288       C  0.79421631  0.06782170  0.54908072     0.07600
C1289       C  0.78534342  0.03802432  0.54231388    -0.02200
C1290       C  0.76132397  0.02594647  0.55785416    -0.02200
C1291       C  0.75043433  0.03929795  0.58665849     0.07800
C1292       C  0.76303610  0.06603459  0.59799191    -0.02400
Br1293     Br  0.75645934  0.08048809  0.64283998    -0.00900
Br1294     Br  0.78884944  0.12240884  0.59013762    -0.01000
Br1295     Br  0.74256509  0.99273765  0.53724701    -0.00900
Br1296     Br  0.80840639  0.00861041  0.01784228    -0.00900
C1297       C  0.87871868  0.41047017  0.66097376    -0.02100
C1298       C  0.88177648  0.39923042  0.69357957     0.07600
C1299       C  0.90923184  0.39118007  0.70215609    -0.02200
C1300       C  0.93206002  0.40689163  0.68837931    -0.02200
C1301       C  0.92763535  0.42668138  0.66161328     0.07800
C1302       C  0.90124029  0.42614245  0.64594280    -0.02400
Br1303     Br  0.89497068  0.44703123  0.60467155    -0.00900
Br1304     Br  0.84971852  0.39583529  0.63233597    -0.01000
Br1305     Br  0.96924799  0.39883999  0.70428653    -0.00900
Br1306     Br  0.91545342  0.35072512  0.71624939    -0.00900
C1307       C  0.92612718  0.40776976  0.81285705    -0.02100
C1308       C  0.93463311  0.43794860  0.80894240     0.07600
C1309       C  0.92296035  0.45514598  0.78306892    -0.02200
C1310       C  0.90174764  0.44303139  0.76304692    -0.02200
C1311       C  0.89093244  0.41380524  0.76911299     0.07800
C1312       C  0.90492356  0.39562888  0.79266886    -0.02400
Br1313     Br  0.89824243  0.35304072  0.79461244    -0.00900
Br1314     Br  0.94440833  0.38246057  0.84506005    -0.01000
Br1315     Br  0.88921442  0.46696833  0.72656031    -0.00900
Br1316     Br  0.92028089  0.00192634  0.78859165    -0.00900
C1317       C  0.80056979  0.47484041  0.78425623    -0.02100
C1318       C  0.80104788  0.44340920  0.78921787     0.07600
C1319       C  0.78836260  0.43221041  0.81881483    -0.02200
C1320       C  0.77589588  0.45164004  0.84186639    -0.02200
C1321       C  0.76869289  0.48103152  0.83208349     0.07800
C1322       C  0.78305311  0.49322577  0.80392598    -0.02400
Br1323     Br  0.78190662  0.03629720  0.79831216    -0.00900
Br1324     Br  0.82549198  0.49370123  0.75293617    -0.01000
Br1325     Br  0.77240073  0.43740308  0.88701054    -0.00900
Br1326     Br  0.78152493  0.39046635  0.82677180    -0.00900
C1327       C  0.75937081  0.44061750  0.72128885    -0.02100
C1328       C  0.78849152  0.44139942  0.71324821     0.07600
C1329       C  0.79683358  0.45944308  0.68591959    -0.02200
C1330       C  0.77723366  0.47605137  0.66732453    -0.02200
C1331       C  0.74822910  0.47445649  0.67456085     0.07800
C1332       C  0.73953405  0.45607784  0.70148793    -0.02400
Br1333     Br  0.70005833  0.44863082  0.70882885    -0.00900
Br1334     Br  0.74521291  0.41527294  0.75641308    -0.01000
Br1335     Br  0.78994793  0.00794288  0.63965972    -0.00900
Br1336     Br  0.83558912  0.46361911  0.67413191    -0.00900
C1337       C  0.74588277  0.19612112  0.79134410    -0.02100
C1338       C  0.73787522  0.20927689  0.82212625     0.07600
C1339       C  0.71250723  0.19914700  0.83646540    -0.02200
C1340       C  0.69589812  0.17895634  0.81907659    -0.02200
C1341       C  0.69777993  0.17819241  0.78414508     0.07800
C1342       C  0.72527538  0.18226706  0.77127304    -0.02400
Br1343     Br  0.73633951  0.16366231  0.73026288    -0.00900
Br1344     Br  0.78502586  0.19138031  0.77987032    -0.01000
Br1345     Br  0.69071330  0.14178037  0.84302553    -0.00900
Br1346     Br  0.70389965  0.20456045  0.88294581    -0.00900
C1347       C  0.70772107  0.28590499  0.89867059    -0.02100
C1348       C  0.73645058  0.28374649  0.90616047     0.07600
C1349       C  0.74691088  0.30344193  0.93041098    -0.02200
C1350       C  0.72846651  0.32151727  0.94944662    -0.02200
C1351       C  0.69901131  0.31730570  0.94783360     0.07800
C1352       C  0.68900032  0.30015843  0.92092217    -0.02400
Br1353     Br  0.64981404  0.29504308  0.91344701    -0.00900
Br1354     Br  0.69396832  0.27427285  0.85590711    -0.01000
Br1355     Br  0.74367566  0.35431266  0.97443409    -0.00900
Br1356     Br  0.78671326  0.30803108  0.93540219    -0.00900
C1357       C  0.79209516  0.29483402  0.79863200    -0.02100
C1358       C  0.80556825  0.28835702  0.82857307     0.07600
C1359       C  0.82538525  0.30945719  0.83967599    -0.02200
C1360       C  0.83044650  0.33662517  0.82171640    -0.02200
C1361       C  0.81709076  0.34220493  0.79026210     0.07800
C1362       C  0.79491059  0.32261200  0.78270470    -0.02400
Br1363     Br  0.76202808  0.33705524  0.76032527    -0.00900
Br1364     Br  0.77240959  0.26458949  0.77569710    -0.01000
Br1365     Br  0.84891698  0.36702602  0.84782205    -0.00900
Br1366     Br  0.84580161  0.30208287  0.87997673    -0.00900
C1367       C  0.83984064  0.18234189  0.95696611    -0.02100
C1368       C  0.83064898  0.15206621  0.95534553     0.07600
C1369       C  0.81150174  0.14545238  0.92977194    -0.02200
C1370       C  0.79570753  0.16815280  0.91561839    -0.02200
C1371       C  0.80604948  0.19788750  0.91376871     0.07800
C1372       C  0.82803705  0.20496291  0.93600035    -0.02400
Br1373     Br  0.83947797  0.24584458  0.94204220    -0.00900
Br1374     Br  0.87128586  0.19216428  0.98432764    -0.01000
Br1375     Br  0.75630474  0.15798822  0.91129691    -0.00900
Br1376     Br  0.80698833  0.10807696  0.90740181    -0.00900
C1377       C  0.73625012  0.29532422  0.54138979    -0.02100
C1378       C  0.72898727  0.28844736  0.57461398     0.07600
C1379       C  0.70067063  0.29388299  0.58432357    -0.02200
C1380       C  0.68126097  0.30535349  0.56091749    -0.02200
C1381       C  0.68968020  0.31134065  0.52759788     0.07800
C1382       C  0.71522430  0.29849631  0.51792246    -0.02400
Br1383     Br  0.71509576  0.26129821  0.99203503    -0.00900
Br1384     Br  0.77446893  0.29979845  0.52627114    -0.01000
Br1385     Br  0.64225334  0.30449913  0.57302653    -0.00900
Br1386     Br  0.68722089  0.28751662  0.62901967    -0.00900
C1387       C  0.69724812  0.21233260  0.65232886    -0.02100
C1388       C  0.72003221  0.22838001  0.66515833     0.07600
C1389       C  0.71702721  0.23893090  0.69788134    -0.02200
C1390       C  0.69742896  0.22507280  0.71984137    -0.02200
C1391       C  0.68055642  0.20119489  0.70818309     0.07800
C1392       C  0.67577843  0.20233706  0.67366629    -0.02400
Br1393     Br  0.63823904  0.20590298  0.65666192    -0.00900
Br1394     Br  0.69156531  0.20981400  0.60547538    -0.01000
Br1395     Br  0.68877365  0.24464220  0.76105230    -0.00900
Br1396     Br  0.73500515  0.27547780  0.71020675    -0.00900
C1397       C  0.78722099  0.32480270  0.65784032    -0.02100
C1398       C  0.79643594  0.29517405  0.66173942     0.07600
C1399       C  0.81465156  0.28868992  0.68842274    -0.02200
C1400       C  0.82358298  0.31187981  0.70999495    -0.02200
C1401       C  0.81075558  0.34064862  0.70891384     0.07800
C1402       C  0.79137588  0.34584968  0.68290968    -0.02400
Br1403     Br  0.76638692  0.37936902  0.68220420    -0.00900
Br1404     Br  0.77107602  0.33805712  0.61655497    -0.01000
Br1405     Br  0.85460470  0.30404264  0.73885925    -0.00900
Br1406     Br  0.82677732  0.24815010  0.69674513    -0.00900
C1407       C  0.82490098  0.19252652  0.58726809    -0.02100
C1408       C  0.79717726  0.20304548  0.58189420     0.07600
C1409       C  0.78246266  0.18988009  0.55526724    -0.02200
C1410       C  0.79627670  0.17273623  0.53111745    -0.02200
C1411       C  0.82408081  0.16295296  0.53555491     0.07800
C1412       C  0.83833655  0.17343916  0.56389505    -0.02400
Br1413     Br  0.87644283  0.16095455  0.57158147    -0.00900
Br1414     Br  0.84182224  0.19574545  0.63021368    -0.01000
Br1415     Br  0.77457647  0.16110631  0.49402248    -0.00900
Br1416     Br  0.74193648  0.18952357  0.55420521    -0.00900
C1417       C  0.78656518  0.72736476  0.10058699     0.86300
C1418       C  0.76848736  0.74855631  0.07950357    -0.54000
C1419       C  0.75151701  0.76826077  0.09613086     0.09200
C1420       C  0.75564232  0.76558514  0.13392459     0.20200
C1421       C  0.80360669  0.74999969  0.12152092    -0.54700
C1422       C  0.78747577  0.76949885  0.13977273     0.09300
C1423       C  0.76565234  0.71268108  0.12500539    -0.54200
C1424       C  0.74917433  0.73244049  0.14194768     0.09900
H1425       H  0.76810123  0.74650544  0.05286104     0.14400
H1426       H  0.74339244  0.78157603  0.14887857     0.00100
H1427       H  0.82613255  0.75235898  0.12043729     0.14700
H1428       H  0.76311477  0.68853339  0.12741665     0.14500
C1429       C  0.78403254  0.72008527  0.39395783     0.86300
C1430       C  0.76683402  0.70543842  0.36686027    -0.54000
C1431       C  0.74954251  0.72383834  0.35014822     0.09200
C1432       C  0.75259053  0.75717856  0.36033148     0.20200
C1433       C  0.80067354  0.74346920  0.37286223    -0.54700
C1434       C  0.78431305  0.76380897  0.35523566     0.09300
C1435       C  0.76329976  0.73871275  0.41505622    -0.54200
C1436       C  0.74720916  0.75844468  0.39756400     0.09900
H1437       H  0.77015646  0.68280639  0.35813093     0.14400
H1438       H  0.73843463  0.77326781  0.34873933     0.00100
H1439       H  0.82320184  0.74195369  0.37028829     0.14700
H1440       H  0.76211567  0.73702712  0.44186976     0.14500
C1441       C  0.82603437  0.89522306  0.21637283     0.45300
H1442       H  0.82159886  0.89515502  0.19000960    -0.03800
C1443       C  0.83459699  0.89665267  0.27904809     0.45300
H1444       H  0.83839389  0.90000698  0.30526440    -0.03800
C1445       C  0.80811094  0.91980817  0.23452714    -0.17500
C1446       C  0.81885514  0.86497098  0.23332680    -0.17200
C1447       C  0.85748128  0.89976600  0.22417010    -0.17600
C1448       C  0.81294348  0.92037613  0.26809248    -0.17600
C1449       C  0.82259277  0.86544250  0.26790142    -0.17100
C1450       C  0.86170786  0.90230428  0.25795170    -0.17500
C1451       C  0.84037981  0.60450873  0.03567997     0.45300
H1452       H  0.84031098  0.60857940  0.06251687    -0.03800
C1453       C  0.84116728  0.59637079  0.47268130     0.45300
H1454       H  0.84415612  0.59192460  0.44650509    -0.03800
C1455       C  0.81664527  0.58312357  0.02352067    -0.17500
C1456       C  0.83733609  0.63400303  0.01472504    -0.17200
C1457       C  0.86838139  0.59003084  0.02493585    -0.17600
C1458       C  0.81515900  0.58053028  0.48837843    -0.17600
C1459       C  0.83724434  0.62988700  0.48076228    -0.17100
C1460       C  0.86726208  0.58510756  0.49132604    -0.17500
O1461       O  0.02878600  0.52398788  0.38103247    -0.58000
C1462       C  0.95442539  0.51929731  0.41920938     0.74600
O1463       O  0.97091280  0.97026103  0.32564049    -0.59200
C1464       C  0.03281915  0.52592498  0.35014017     0.74600
C1465       C  0.03023677  0.94217135  0.40832934     0.77000
Cd1466     Cd  0.99126589  0.98511110  0.37905802     1.37500
O1467       O  0.95608587  0.52187401  0.38804505    -0.58000
O1468       O  0.01773483  0.45947567  0.42739947    -0.56800
C1469       C  0.95209005  0.95288015  0.33692838     0.76900
O1470       O  0.02518653  0.94312988  0.37770502    -0.59200
O1471       O  0.97204872  0.00488409  0.43171983    -0.57700
O1472       O  0.01709100  0.01070327  0.33275546    -0.57600
O1473       O  0.95171832  0.44944712  0.36830409    -0.56800
C1474       C  0.15336435  0.89532206  0.02979210     0.45300
H1475       H  0.15301683  0.89754217  0.05633962    -0.03800
C1476       C  0.15823413  0.89041288  0.46615897     0.45300
H1477       H  0.16203414  0.88787908  0.43965742    -0.03800
C1478       C  0.17948738  0.91133104  0.01567069    -0.17500
C1479       C  0.15460619  0.86139302  0.01922836    -0.17200
C1480       C  0.12858508  0.91080519  0.01130493    -0.17600
C1481       C  0.18157622  0.91026022  0.48168826    -0.17600
C1482       C  0.15963973  0.85959520  0.48358611    -0.17100
C1483       C  0.12931714  0.90379444  0.47703040    -0.17500
C1484       C  0.14534402  0.59161367  0.21964537     0.45300
H1485       H  0.14229295  0.58810205  0.19301442    -0.03800
C1486       C  0.14973768  0.59842055  0.28264944     0.45300
H1487       H  0.15126899  0.60184460  0.30959492    -0.03800
C1488       C  0.17119113  0.57481205  0.23387367    -0.17500
C1489       C  0.14925033  0.62514652  0.22878867    -0.17200
C1490       C  0.11956160  0.57993538  0.23955883    -0.17600
C1491       C  0.17301446  0.57736300  0.26797531    -0.17600
C1492       C  0.15192737  0.62868378  0.26288852    -0.17100
C1493       C  0.12139476  0.58409491  0.27326266    -0.17500
C1494       C  0.19552502  0.72335318  0.35175372     0.86300
C1495       C  0.21631449  0.70430400  0.37131937    -0.54000
C1496       C  0.23462143  0.71974624  0.39019413     0.09200
C1497       C  0.23010361  0.75418797  0.38841105     0.20200
C1498       C  0.18095547  0.74236033  0.37950040    -0.54700
C1499       C  0.19901237  0.75990606  0.39829866     0.09300
C1500       C  0.21219204  0.74803998  0.33346749    -0.54200
C1501       C  0.23113193  0.76266028  0.35201729     0.09900
H1502       H  0.21526963  0.68000016  0.37136953     0.14400
H1503       H  0.24653005  0.76697126  0.40064430     0.00100
H1504       H  0.15858112  0.74400530  0.38249897     0.14700
H1505       H  0.20951532  0.75339244  0.30740428     0.14500
C1506       C  0.18929889  0.72325799  0.14536459     0.86300
C1507       C  0.20861015  0.73939113  0.17010750    -0.54000
C1508       C  0.22643878  0.76040367  0.15638826     0.09200
C1509       C  0.22369693  0.76249356  0.11805705     0.20200
C1510       C  0.17449886  0.74822697  0.12610492    -0.54700
C1511       C  0.19204879  0.76860074  0.11114973     0.09300
C1512       C  0.21021488  0.71025225  0.11998841    -0.54200
C1513       C  0.22879608  0.72980622  0.10564209     0.09900
H1514       H  0.20848711  0.73408884  0.19637647     0.14400
H1515       H  0.23780408  0.77991645  0.10788838     0.00100
H1516       H  0.15193042  0.74887890  0.12307121     0.14700
H1517       H  0.21091580  0.68678180  0.11403344     0.14500
O1518       O  0.96476778  0.53365780  0.12521865    -0.58000
C1519       C  0.03189872  0.51655559  0.16894160     0.74600
O1520       O  0.95392650  0.95048566  0.12156026    -0.59200
C1521       C  0.95819941  0.53337945  0.09501887     0.74600
C1522       C  0.03409091  0.96420147  0.08192451     0.77000
Cd1523     Cd  0.99144100  0.98847934  0.12539383     1.37500
O1524       O  0.00997879  0.52947476  0.15894174    -0.58000
O1525       O  0.02861597  0.49040739  0.07796688    -0.56800
C1526       C  0.94956255  0.94736813  0.15227381     0.76900
O1527       O  0.02185849  0.94814922  0.10367045    -0.59200
O1528       O  0.03347321  0.99156864  0.16008334    -0.57700
O1529       O  0.96680341  0.01236696  0.07859959    -0.57600
O1530       O  0.96703512  0.46304310  0.16818344    -0.56800
C1531       C  0.32742643  0.85680238  0.28534186     0.45300
H1532       H  0.32504352  0.85756563  0.31234574    -0.03800
C1533       C  0.33029533  0.85124492  0.22228567     0.45300
H1534       H  0.33158402  0.84681038  0.19650673    -0.03800
C1535       C  0.30447205  0.83584412  0.27085052    -0.17500
C1536       C  0.32573108  0.88803017  0.26717453    -0.17200
C1537       C  0.35581590  0.84392501  0.27439293    -0.17600
C1538       C  0.30580906  0.83284670  0.23694114    -0.17600
C1539       C  0.32402571  0.88432976  0.23236184    -0.17100
C1540       C  0.35776950  0.84149395  0.24049846    -0.17500
C1541       C  0.34410064  0.65135554  0.47208923     0.45300
H1542       H  0.34980117  0.65153905  0.44600278    -0.03800
C1543       C  0.33400933  0.65498565  0.03466537     0.45300
H1544       H  0.32968463  0.65617279  0.06144835    -0.03800
C1545       C  0.31834131  0.67075112  0.48053506    -0.17500
C1546       C  0.33756990  0.61961566  0.48716574    -0.17200
C1547       C  0.36879805  0.66521356  0.49106323    -0.17600
C1548       C  0.31233466  0.67420633  0.01428746    -0.17600
C1549       C  0.33304431  0.62217245  0.02145847    -0.17100
C1550       C  0.36321622  0.66709594  0.02472653    -0.17500
C1551       C  0.29408663  0.52451270  0.39851658     0.86300
C1552       C  0.27809640  0.50143413  0.41940091    -0.54000
C1553       C  0.26084965  0.98357670  0.40240436     0.09200
C1554       C  0.26290027  0.98766136  0.36438244     0.20200
C1555       C  0.31144896  0.50548521  0.37340504    -0.54700
C1556       C  0.29450182  0.98654403  0.35541306     0.09300
C1557       C  0.27212029  0.53910947  0.37563378    -0.54200
C1558       C  0.25560133  0.51988673  0.35794571     0.09900
H1559       H  0.27811771  0.50217386  0.44623784     0.14400
H1560       H  0.25081323  0.96989793  0.35239324     0.00100
H1561       H  0.33364058  0.50818784  0.36864536     0.14700
H1562       H  0.27050884  0.56331946  0.37319078     0.14500
C1563       C  0.29413048  0.52324960  0.10283478     0.86300
C1564       C  0.27228760  0.54084201  0.12343715    -0.54000
C1565       C  0.25308773  0.52326751  0.14003209     0.09200
C1566       C  0.25511948  0.98784612  0.13375319     0.20200
C1567       C  0.30676110  0.50089581  0.12746629    -0.54700
C1568       C  0.28593122  0.98150993  0.14334915     0.09300
C1569       C  0.27569786  0.50396259  0.07977515    -0.54200
C1570       C  0.25426616  0.98444462  0.09594424     0.09900
H1571       H  0.27238506  0.56513373  0.12539837     0.14400
H1572       H  0.23955404  0.97334450  0.14661706     0.00100
H1573       H  0.32914780  0.49916514  0.13156283     0.14700
H1574       H  0.27668969  0.50481667  0.05307516     0.14500
O1575       O  0.47848732  0.74141581  0.43007927    -0.58000
C1576       C  0.53172824  0.72440029  0.34018380     0.74600
O1577       O  0.46986499  0.78721448  0.33053141    -0.59200
C1578       C  0.45954578  0.72539541  0.41746090     0.74600
C1579       C  0.53280167  0.80733266  0.40611915     0.77000
Cd1580     Cd  0.49495715  0.76373002  0.37742114     1.37500
O1581       O  0.53125393  0.72495905  0.37144183    -0.58000
O1582       O  0.52225595  0.78613649  0.42308044    -0.56800
C1583       C  0.45067338  0.79870871  0.34823037     0.76900
O1584       O  0.52519747  0.80893727  0.37628414    -0.59200
O1585       O  0.51404384  0.74081620  0.32558723    -0.57700
O1586       O  0.45833743  0.72548931  0.38619359    -0.57600
O1587       O  0.45291967  0.79555006  0.37922591    -0.56800
C1588       C  0.70106803  0.53175160  0.34593446     0.86300
C1589       C  0.72410557  0.51356008  0.32803477    -0.54000
C1590       C  0.74223106  0.99620734  0.35146763     0.09200
C1591       C  0.73402629  0.99903150  0.38856173     0.20200
C1592       C  0.68604097  0.50842762  0.36766526    -0.54700
C1593       C  0.70230557  0.99127901  0.39105480     0.09300
C1594       C  0.71785807  0.55153349  0.37019706    -0.54200
C1595       C  0.73560938  0.53563315  0.39039089     0.09900
H1596       H  0.72692143  0.51312930  0.30168863     0.14400
H1597       H  0.74701563  0.98645433  0.40621728     0.00100
H1598       H  0.66369895  0.00381972  0.36768407     0.14700
H1599       H  0.71638677  0.57583421  0.37067959     0.14500
C1600       C  0.64634392  0.65053448  0.27538420     0.45300
H1601       H  0.64570512  0.64955458  0.30247188    -0.03800
C1602       C  0.64415740  0.65434894  0.21206199     0.45300
H1603       H  0.64210155  0.65473127  0.18514797    -0.03800
C1604       C  0.67140098  0.66862800  0.26071127    -0.17500
C1605       C  0.64929533  0.61969961  0.25871972    -0.17200
C1606       C  0.61890119  0.66505464  0.26283935    -0.17600
C1607       C  0.66815293  0.67421590  0.22660691    -0.17600
C1608       C  0.64812081  0.62138070  0.22446099    -0.17100
C1609       C  0.61775580  0.66631083  0.22901571    -0.17500
C1610       C  0.68796008  0.52467589  0.14207101     0.86300
C1611       C  0.70887008  0.54075854  0.11855615    -0.54000
C1612       C  0.72958112  0.52374238  0.10550617     0.09200
C1613       C  0.72618165  0.99069755  0.11891314     0.20200
C1614       C  0.67675071  0.49846817  0.12134317    -0.54700
C1615       C  0.69579032  0.98185715  0.10961578     0.09300
C1616       C  0.70719126  0.50955683  0.16778574    -0.54200
C1617       C  0.72680917  0.99132872  0.15725928     0.09900
H1618       H  0.70882771  0.56453255  0.11352950     0.14400
H1619       H  0.74272577  0.97634885  0.10793592     0.00100
H1620       H  0.65350368  0.99697225  0.12092956     0.14700
H1621       H  0.70516805  0.51346985  0.19415949     0.14500
C1622       C  0.65420052  0.86099357  0.46042981     0.45300
H1623       H  0.65514198  0.86014057  0.43368382    -0.03800
C1624       C  0.65589896  0.85978350  0.02394221     0.45300
H1625       H  0.65542502  0.86043592  0.05120590    -0.03800
C1626       C  0.67282672  0.83570525  0.47516501    -0.17500
C1627       C  0.66538476  0.89046493  0.47438527    -0.17200
C1628       C  0.62400789  0.85785043  0.47488994    -0.17600
C1629       C  0.67429113  0.83389843  0.00989140    -0.17600
C1630       C  0.66748540  0.89012999  0.00941197    -0.17100
C1631       C  0.62671398  0.85507227  0.00834659    -0.17500
O1632       O  0.47002604  0.71602491  0.11343719    -0.58000
C1633       C  0.53092554  0.72798792  0.15586989     0.74600
O1634       O  0.53051906  0.80358040  0.11362837    -0.59200
C1635       C  0.45295426  0.72533849  0.09198210     0.74600
C1636       C  0.45310960  0.79807122  0.16264769     0.77000
Cd1637     Cd  0.49255014  0.76567644  0.12118755     1.37500
O1638       O  0.52870780  0.72633700  0.12471206    -0.58000
O1639       O  0.47394430  0.78437041  0.17452253    -0.54000
C1640       C  0.53253000  0.80147690  0.08251501     0.76900
O1641       O  0.45195364  0.79937889  0.13142726    -0.59200
O1642       O  0.51431469  0.74563190  0.17071931    -0.57700
O1643       O  0.45566994  0.75228141  0.08242472    -0.57600
O1644       O  0.51437972  0.78501617  0.06909763    -0.56800
C1645       C  0.59080317  0.85596506  0.05623101    -0.02100
C1646       C  0.60287573  0.84127043  0.02848570     0.07600
C1647       C  0.59294964  0.81218367  0.02097458    -0.02200
C1648       C  0.56959783  0.79974300  0.03778043    -0.02200
C1649       C  0.55588119  0.81586863  0.06321797     0.07800
C1650       C  0.56672000  0.84410498  0.07232250    -0.02400
Br1651     Br  0.54778205  0.86770319  0.10571164    -0.00900
Br1652     Br  0.60708208  0.88883434  0.57757692    -0.01000
Br1653     Br  0.55825916  0.75917347  0.02738278    -0.00900
Br1654     Br  0.61389022  0.78681030  0.99164318    -0.00900
C1655       C  0.66121135  0.94232232  0.03626938    -0.02100
C1656       C  0.67633927  0.91503880  0.03314753     0.07600
C1657       C  0.69716873  0.90956262  0.05745395    -0.02200
C1658       C  0.70211648  0.93015890  0.08342398    -0.02200
C1659       C  0.68907736  0.95864403  0.08360846     0.07800
C1660       C  0.66988027  0.96503185  0.05811163    -0.02400
Br1661     Br  0.65633067  0.50353257  0.04825914    -0.00900
Br1662     Br  0.61951105  0.94415789  0.52243990    -0.01000
Br1663     Br  0.72525602  0.91780429  0.11999959    -0.00900
Br1664     Br  0.71898332  0.87347218  0.05708639    -0.00900
C1665       C  0.57866165  0.66586068  0.18722525    -0.02100
C1666       C  0.59536838  0.68187696  0.20979726     0.07600
C1667       C  0.59215911  0.71331790  0.21200203    -0.02200
C1668       C  0.57078842  0.72805906  0.19474238    -0.02200
C1669       C  0.55292008  0.71172701  0.17404713     0.07800
C1670       C  0.55724942  0.68069774  0.16973523    -0.02400
Br1671     Br  0.53330730  0.65827005  0.14071694    -0.00900
Br1672     Br  0.58529441  0.62379726  0.17923403    -0.01000
Br1673     Br  0.56768436  0.77133931  0.19733704    -0.00900
Br1674     Br  0.61956008  0.73739612  0.23387502    -0.00900
C1675       C  0.65011325  0.54111823  0.18636604    -0.02100
C1676       C  0.66600382  0.54686797  0.15720517     0.07600
C1677       C  0.66531540  0.57670145  0.14596410    -0.02200
C1678       C  0.66431818  0.59980690  0.16886818    -0.02200
C1679       C  0.65111330  0.59525752  0.20014704     0.07800
C1680       C  0.64050468  0.56564386  0.20628118    -0.02400
Br1681     Br  0.61145597  0.55862696  0.23885308    -0.00900
Br1682     Br  0.63870769  0.50062252  0.19612736    -0.01000
Br1683     Br  0.68993041  0.63166929  0.15873128    -0.00900
Br1684     Br  0.65905392  0.58624796  0.09994432    -0.00900
C1685       C  0.65905652  0.56757628  0.33350142    -0.02100
C1686       C  0.68155677  0.54932305  0.32241536     0.07600
C1687       C  0.68668901  0.54912420  0.28809357    -0.02200
C1688       C  0.68051612  0.57447020  0.26942769    -0.02200
C1689       C  0.65797565  0.59297732  0.27920829     0.07800
C1690       C  0.64530447  0.58682634  0.31065717    -0.02400
Br1691     Br  0.60996088  0.60462900  0.32326825    -0.00900
Br1692     Br  0.64705247  0.56718714  0.37919372    -0.01000
Br1693     Br  0.70781274  0.58478690  0.23602234    -0.00900
Br1694     Br  0.68349373  0.51191094  0.26466875    -0.00900
C1695       C  0.69015300  0.91163042  0.42079543    -0.02100
C1696       C  0.67401433  0.91586436  0.45069504     0.07600
C1697       C  0.65954968  0.94339573  0.45191947    -0.02200
C1698       C  0.67160829  0.96902860  0.43703930    -0.02200
C1699       C  0.69085600  0.96548137  0.41063873     0.07800
C1700       C  0.69589896  0.93627811  0.39961955    -0.02400
Br1701     Br  0.70349241  0.93016526  0.35289922    -0.00900
Br1702     Br  0.70330422  0.87393338  0.40425490    -0.01000
Br1703     Br  0.65700473  0.50798419  0.44554622    -0.00900
Br1704     Br  0.62216449  0.93776263  0.94202587    -0.00900
C1705       C  0.54688376  0.68375513  0.30070202    -0.02100
C1706       C  0.55356362  0.70750461  0.32197047     0.07600
C1707       C  0.58170018  0.71558023  0.32622185    -0.02200
C1708       C  0.60294657  0.70161384  0.30755843    -0.02200
C1709       C  0.59660176  0.67812222  0.28534910     0.07800
C1710       C  0.56841107  0.66828585  0.28360110    -0.02400
Br1711     Br  0.55929413  0.63193696  0.26065293    -0.00900
Br1712     Br  0.50831835  0.67183104  0.29601216    -0.01000
Br1713     Br  0.63998712  0.71726860  0.31192161    -0.00900
Br1714     Br  0.59111819  0.74713906  0.35687802    -0.00900
C1715       C  0.54895316  0.84104861  0.45190148    -0.02100
C1716       C  0.55348548  0.82838338  0.42038381     0.07600
C1717       C  0.57758474  0.83731112  0.40228992    -0.02200
C1718       C  0.59889868  0.85354055  0.41811930    -0.02200
C1719       C  0.59782581  0.85702664  0.45309837     0.07800
C1720       C  0.57055330  0.85746011  0.46693439    -0.02400
Br1721     Br  0.56444814  0.89109415  0.99433057    -0.00900
Br1722     Br  0.51275920  0.83824151  0.47330119    -0.01000
Br1723     Br  0.62214269  0.87857264  0.38977948    -0.00900
Br1724     Br  0.58221365  0.82754370  0.35603451    -0.00900
C1725       C  0.42358667  0.72452454  0.46267531    -0.02100
C1726       C  0.43861476  0.70902936  0.43808691     0.07600
C1727       C  0.43150540  0.67914989  0.43111259    -0.02200
C1728       C  0.40911342  0.66490750  0.44819820    -0.02200
C1729       C  0.39348295  0.68024939  0.47308965     0.07800
C1730       C  0.40094597  0.71060838  0.47939544    -0.02400
Br1731     Br  0.37544855  0.73798647  0.00402344    -0.00900
Br1732     Br  0.43252251  0.76618000  0.47165266    -0.01000
Br1733     Br  0.40080063  0.62427571  0.43632441    -0.00900
Br1734     Br  0.45341061  0.65731488  0.39869770    -0.00900
C1735       C  0.41231366  0.66499961  0.04747667    -0.02100
C1736       C  0.38493151  0.67716279  0.04900683     0.07600
C1737       C  0.37956796  0.70066009  0.07162550    -0.02200
C1738       C  0.40203298  0.71604588  0.08601399    -0.02200
C1739       C  0.42975196  0.70664719  0.08002264     0.07800
C1740       C  0.43474802  0.67986511  0.06273463    -0.02400
Br1741     Br  0.47234155  0.66440759  0.05858272    -0.00900
Br1742     Br  0.41874241  0.62680247  0.02668334    -0.01000
Br1743     Br  0.39488628  0.75047376  0.11382064    -0.00900
Br1744     Br  0.34220434  0.71344301  0.08249099    -0.00900
C1745       C  0.29898700  0.59283573  0.45660924    -0.02100
C1746       C  0.32748913  0.59419041  0.46565035     0.07600
C1747       C  0.34482555  0.56959875  0.45692326    -0.02200
C1748       C  0.33532739  0.54724784  0.43444478    -0.02200
C1749       C  0.30732624  0.54797682  0.42241833     0.07800
C1750       C  0.28886595  0.56813219  0.43904008    -0.02400
Br1751     Br  0.25013014  0.55761349  0.44780988    -0.00900
Br1752     Br  0.27154372  0.62202313  0.47173319    -0.01000
Br1753     Br  0.35916156  0.51299585  0.42695247    -0.00900
Br1754     Br  0.37956069  0.56381712  0.48012579    -0.00900
C1755       C  0.31750631  0.56710521  0.03206939    -0.02100
C1756       C  0.32915124  0.59426061  0.04408528     0.07600
C1757       C  0.33743685  0.59325831  0.07823714    -0.02200
C1758       C  0.32820551  0.56902389  0.09901424    -0.02200
C1759       C  0.31602439  0.54333406  0.08468197     0.07800
C1760       C  0.32051867  0.54101883  0.05054154    -0.02400
Br1761     Br  0.32894898  0.50391384  0.02860760    -0.00900
Br1762     Br  0.27771393  0.56704081  0.52389196    -0.01000
Br1763     Br  0.33553530  0.56923737  0.14567923    -0.00900
Br1764     Br  0.36282907  0.62167459  0.09728621    -0.00900
C1765       C  0.41778199  0.79143037  0.20820585    -0.02100
C1766       C  0.43039823  0.81016718  0.18410086     0.07600
C1767       C  0.42032067  0.83959550  0.17969792    -0.02200
C1768       C  0.39781256  0.85030750  0.19929510    -0.02200
C1769       C  0.38380181  0.83103204  0.22221572     0.07800
C1770       C  0.39467289  0.80164489  0.22697510    -0.02400
Br1771     Br  0.37795337  0.77378393  0.25777440    -0.00900
Br1772     Br  0.43063975  0.75043537  0.21373791    -0.01000
Br1773     Br  0.38896646  0.89248835  0.19667345    -0.00900
Br1774     Br  0.43802301  0.86566701  0.14730379    -0.00900
C1775       C  0.42935141  0.83805057  0.31153131    -0.02100
C1776       C  0.42607546  0.81359763  0.33338492     0.07600
C1777       C  0.39898985  0.80306476  0.34101676    -0.02200
C1778       C  0.37565457  0.81478762  0.32417626    -0.02200
C1779       C  0.37923389  0.83631501  0.29830771     0.07800
C1780       C  0.40589494  0.85005490  0.29509637    -0.02400
Br1781     Br  0.40948346  0.88866405  0.27425834    -0.00900
Br1782     Br  0.46582418  0.85611820  0.30567895    -0.01000
Br1783     Br  0.33956627  0.80069404  0.33806420    -0.00900
Br1784     Br  0.39393895  0.77085919  0.37308091    -0.00900
C1785       C  0.32421659  0.94720201  0.27701715    -0.02100
C1786       C  0.32603351  0.91701815  0.28865441     0.07600
C1787       C  0.32827019  0.91456838  0.32362810    -0.02200
C1788       C  0.31571071  0.93586521  0.34446924    -0.02200
C1789       C  0.30699622  0.96372842  0.33196441     0.07800
C1790       C  0.31349223  0.97017702  0.29831097    -0.02400
Br1791     Br  0.30910707  0.01057916  0.28199848    -0.00900
Br1792     Br  0.34577921  0.95936564  0.23867948    -0.01000
Br1793     Br  0.31304393  0.92695634  0.39078891    -0.00900
Br1794     Br  0.35898795  0.89291047  0.34330832    -0.00900
C1795       C  0.32125187  0.90911149  0.17256724    -0.02100
C1796       C  0.31203883  0.90670247  0.20671932     0.07600
C1797       C  0.28942738  0.92581351  0.21582057    -0.02200
C1798       C  0.28175846  0.95061993  0.19598212    -0.02200
C1799       C  0.29485347  0.95593328  0.16516617     0.07800
C1800       C  0.31414939  0.93455815  0.15319381    -0.02400
Br1801     Br  0.32847255  0.93805453  0.10791330    -0.00900
Br1802     Br  0.33769464  0.87712703  0.14631952    -0.01000
Br1803     Br  0.25381600  0.97797746  0.21221334    -0.00900
Br1804     Br  0.26564476  0.91652272  0.25302983    -0.00900
C1805       C  0.25587003  0.81626492  0.22014706    -0.02100
C1806       C  0.28539855  0.81467364  0.21538816     0.07600
C1807       C  0.29513938  0.79516011  0.18985942    -0.02200
C1808       C  0.27610239  0.77868795  0.17005338    -0.02200
C1809       C  0.24689647  0.77887145  0.17674959     0.07800
C1810       C  0.23735155  0.79697546  0.20319405    -0.02400
Br1811     Br  0.19864679  0.79582475  0.21733677    -0.00900
Br1812     Br  0.23907374  0.84741640  0.24613625    -0.01000
Br1813     Br  0.29102003  0.75401813  0.13518466    -0.00900
Br1814     Br  0.33463862  0.78775755  0.18295004    -0.00900
C1815       C  0.26218252  0.73415872  0.05446070    -0.02100
C1816       C  0.25122940  0.71793385  0.08187921     0.07600
C1817       C  0.26144394  0.68839242  0.08612848    -0.02200
C1818       C  0.27504100  0.67359238  0.05994267    -0.02200
C1819       C  0.28845176  0.68972833  0.03379357     0.07800
C1820       C  0.28334495  0.72133948  0.03387029    -0.02400
Br1821     Br  0.31176454  0.74652345  0.51606208    -0.00900
Br1822     Br  0.25031152  0.77442487  0.04521281    -0.01000
Br1823     Br  0.27265054  0.63093936  0.06124122    -0.00900
Br1824     Br  0.26257378  0.66936642  0.12950570    -0.00900
C1825       C  0.29594692  0.66984751  0.41996723    -0.02100
C1826       C  0.30029350  0.68333114  0.45224544     0.07600
C1827       C  0.28809341  0.71154121  0.45541871    -0.02200
C1828       C  0.26108401  0.71445932  0.44296693    -0.02200
C1829       C  0.25678797  0.70479683  0.41061453     0.07800
C1830       C  0.27431175  0.68117524  0.39913460    -0.02400
Br1831     Br  0.26802496  0.66227562  0.35677929    -0.00900
Br1832     Br  0.31808807  0.63802113  0.40022901    -0.01000
Br1833     Br  0.23068609  0.70677978  0.47323894    -0.00900
Br1834     Br  0.30898779  0.74356031  0.93431528    -0.00900
C1835       C  0.27354782  0.76958141  0.31801346    -0.02100
C1836       C  0.25223276  0.78269213  0.33670704     0.07600
C1837       C  0.24988045  0.81404956  0.33731340    -0.02200
C1838       C  0.26809898  0.83166779  0.31748302    -0.02200
C1839       C  0.28552595  0.81776282  0.29317519     0.07800
C1840       C  0.28716957  0.78601894  0.29324722    -0.02400
Br1841     Br  0.30947388  0.76333733  0.26270314    -0.00900
Br1842     Br  0.28923264  0.73205133  0.33227510    -0.01000
Br1843     Br  0.26759907  0.87437290  0.32374881    -0.00900
Br1844     Br  0.22271900  0.83278190  0.36602969    -0.00900
C1845       C  0.22029996  0.56022461  0.34151551    -0.02100
C1846       C  0.23288983  0.53214529  0.33480215     0.07600
C1847       C  0.22333238  0.51745731  0.30592249    -0.02200
C1848       C  0.20201476  0.53056045  0.28605821    -0.02200
C1849       C  0.19431716  0.56128670  0.28988763     0.07800
C1850       C  0.20585908  0.57618462  0.31725253    -0.02400
Br1851     Br  0.20491567  0.61885568  0.32286308    -0.00900
Br1852     Br  0.21268227  0.57335986  0.38558161    -0.01000
Br1853     Br  0.18159937  0.50417836  0.25763006    -0.00900
Br1854     Br  0.23661112  0.97950811  0.29243600    -0.00900
C1855       C  0.22179199  0.56632781  0.21332364    -0.02100
C1856       C  0.19267847  0.55988384  0.21120784     0.07600
C1857       C  0.18400390  0.54045661  0.18541934    -0.02200
C1858       C  0.20335758  0.52972822  0.16159596    -0.02200
C1859       C  0.23219576  0.53571715  0.16442872     0.07800
C1860       C  0.24126896  0.55291377  0.19147030    -0.02400
Br1861     Br  0.28071033  0.55609716  0.20089104    -0.00900
Br1862     Br  0.23635508  0.59542158  0.24354134    -0.01000
Br1863     Br  0.18957070  0.50800684  0.12413733    -0.00900
Br1864     Br  0.14592437  0.52654749  0.18242532    -0.00900
C1865       C  0.08176646  0.57782641  0.19616921    -0.02100
C1866       C  0.09609776  0.56374570  0.22259452     0.07600
C1867       C  0.08915185  0.53362379  0.23102350    -0.02200
C1868       C  0.06791922  0.51833430  0.21398655    -0.02200
C1869       C  0.05341626  0.53275017  0.18811594     0.07800
C1870       C  0.06071880  0.56244889  0.17905808    -0.02400
Br1871     Br  0.04359022  0.58186488  0.14125418    -0.00900
Br1872     Br  0.08966997  0.61886116  0.18341776    -0.01000
Br1873     Br  0.05114298  0.98124233  0.23158761    -0.00900
Br1874     Br  0.11019010  0.51136826  0.26340790    -0.00900
C1875       C  0.16405007  0.64578165  0.17052234    -0.02100
C1876       C  0.15143565  0.65020201  0.20242648     0.07600
C1877       C  0.14182435  0.67993360  0.20873198    -0.02200
C1878       C  0.15290938  0.70461920  0.19016539    -0.02200
C1879       C  0.16938272  0.69940128  0.16142538     0.07800
C1880       C  0.16796776  0.67012917  0.14886309    -0.02400
Br1881     Br  0.16152494  0.66382186  0.10218843    -0.00900
Br1882     Br  0.18164334  0.60985265  0.15480951    -0.01000
Br1883     Br  0.14345834  0.74491096  0.20261496    -0.00900
Br1884     Br  0.11087058  0.68675850  0.23862027    -0.00900
C1885       C  0.15472397  0.68763869  0.33229367    -0.02100
C1886       C  0.18074717  0.70236309  0.32610525     0.07600
C1887       C  0.19613927  0.69282011  0.29708145    -0.02200
C1888       C  0.18482093  0.67253679  0.27408047    -0.02200
C1889       C  0.15948622  0.65736407  0.28109307     0.07800
C1890       C  0.14420955  0.66600258  0.30985133    -0.02400
Br1891     Br  0.10795023  0.64844592  0.31874552    -0.00900
Br1892     Br  0.13484924  0.69179302  0.37382414    -0.01000
Br1893     Br  0.20712937  0.66315860  0.23514153    -0.00900
Br1894     Br  0.23563014  0.70149135  0.28982551    -0.00900
C1895       C  0.21358851  0.91740869  0.06333872    -0.02100
C1896       C  0.19765040  0.93047598  0.03755936     0.07600
C1897       C  0.19791624  0.96207589  0.03430729    -0.02200
C1898       C  0.21613620  0.97966295  0.05342378    -0.02200
C1899       C  0.23347860  0.96607278  0.07745708     0.07800
C1900       C  0.23127181  0.93496039  0.08303340    -0.02400
Br1901     Br  0.25328455  0.91537978  0.11662443    -0.00900
Br1902     Br  0.21336930  0.87511942  0.07146207    -0.01000
Br1903     Br  0.21857930  0.52308864  0.04390632    -0.00900
Br1904     Br  0.17089746  0.98213116  0.00714759    -0.00900
C1905       C  0.19344975  0.94761737  0.43552373    -0.02100
C1906       C  0.20267731  0.92797649  0.46082871     0.07600
C1907       C  0.23194509  0.92647552  0.46619377    -0.02200
C1908       C  0.25068810  0.94543905  0.44858214    -0.02200
C1909       C  0.24138048  0.96252353  0.42091326     0.07800
C1910       C  0.21243953  0.96216841  0.41392114    -0.02400
Br1911     Br  0.19685312  0.98340790  0.37667615    -0.00900
Br1912     Br  0.15549221  0.96102791  0.43381883    -0.01000
Br1913     Br  0.28877001  0.94797565  0.46461022    -0.00900
Br1914     Br  0.24789561  0.89818861  0.49653004    -0.00900
C1915       C  0.06320740  0.95996908  0.02958375    -0.02100
C1916       C  0.05913332  0.95326043  0.06344021     0.07600
C1917       C  0.08177042  0.94105477  0.08118500    -0.02200
C1918       C  0.10690617  0.93364186  0.06457696    -0.02200
C1919       C  0.10764471  0.93174673  0.02949039     0.07800
C1920       C  0.08808947  0.95080653  0.01322703    -0.02400
Br1921     Br  0.09609351  0.97176487  0.47454735    -0.00900
Br1922     Br  0.03513629  0.98219686  0.00543986    -0.01000
Br1923     Br  0.14031675  0.94475413  0.08814856    -0.00900
Br1924     Br  0.08063047  0.93936436  0.12907242    -0.00900
C1925       C  0.15355549  0.82349934  0.43555103    -0.02100
C1926       C  0.16893040  0.83285643  0.46330597     0.07600
C1927       C  0.19498550  0.81917293  0.46884646    -0.02200
C1928       C  0.20490036  0.79562980  0.44860137    -0.02200
C1929       C  0.18929718  0.78564079  0.42069255     0.07800
C1930       C  0.16458003  0.80220214  0.41316576    -0.02400
Br1931     Br  0.14837433  0.80192720  0.36940778    -0.00900
Br1932     Br  0.11543378  0.83633214  0.43008913    -0.01000
Br1933     Br  0.24116988  0.78054598  0.46026570    -0.00900
Br1934     Br  0.21768827  0.83259430  0.50468902    -0.00900
C1935       C  0.15708888  0.80450049  0.03550195    -0.02100
C1936       C  0.15513083  0.83506834  0.04468100     0.07600
C1937       C  0.15654773  0.83994634  0.07931433    -0.02200
C1938       C  0.17154780  0.81982489  0.09980031    -0.02200
C1939       C  0.18056531  0.79185939  0.08770997     0.07800
C1940       C  0.17149711  0.78360063  0.05581354    -0.02400
Br1941     Br  0.17695798  0.74312525  0.04045709    -0.00900
Br1942     Br  0.13242676  0.78709815  0.50194201    -0.01000
Br1943     Br  0.17887002  0.83070628  0.14475685    -0.00900
Br1944     Br  0.12936597  0.86511120  0.10119720    -0.00900
C1945       C  0.08259937  0.54442607  0.34620140    -0.02100
C1946       C  0.05475499  0.54572529  0.33503764     0.07600
C1947       C  0.04838274  0.56496358  0.30837261    -0.02200
C1948       C  0.06990515  0.58100748  0.29172231    -0.02200
C1949       C  0.09855389  0.57481314  0.29818724     0.07800
C1950       C  0.10450153  0.55767104  0.32725278    -0.02400
Br1951     Br  0.14204151  0.54872847  0.34086312    -0.00900
Br1952     Br  0.09116620  0.52301360  0.38674256    -0.01000
Br1953     Br  0.05944865  0.61390050  0.26323276    -0.00900
Br1954     Br  0.00984843  0.57033395  0.29550342    -0.00900
C1955       C  0.08060922  0.92622520  0.40550556    -0.02100
C1956       C  0.05438990  0.92494881  0.42189604     0.07600
C1957       C  0.05217427  0.90819906  0.45158353    -0.02200
C1958       C  0.07662511  0.89744986  0.46733780    -0.02200
C1959       C  0.10364047  0.90462529  0.45433868     0.07800
C1960       C  0.10457373  0.91363482  0.42022913    -0.02400
Br1961     Br  0.13474417  0.90420300  0.38952565    -0.00900
Br1962     Br  0.08495031  0.94755666  0.36376394    -0.01000
Br1963     Br  0.07075964  0.87441521  0.00689541    -0.00900
Br1964     Br  0.01572054  0.89953558  0.47031306    -0.00900
C1965       C  0.90880556  0.55097149  0.09469335    -0.02100
C1966       C  0.93625531  0.55341636  0.08199294     0.07600
C1967       C  0.94191994  0.57346081  0.05581683    -0.02200
C1968       C  0.91980236  0.58922869  0.04075365    -0.02200
C1969       C  0.89156683  0.58200347  0.04872029     0.07800
C1970       C  0.88637753  0.56419098  0.07753427    -0.02400
Br1971     Br  0.84929257  0.55341497  0.09222066    -0.00900
Br1972     Br  0.90159015  0.52726808  0.13429361    -0.01000
Br1973     Br  0.92611472  0.62254953  0.51336441    -0.00900
Br1974     Br  0.98006323  0.57944203  0.04101260    -0.00900
C1975       C  0.89775699  0.53875825  0.48278005    -0.02100
C1976       C  0.89076425  0.56866470  0.47383189     0.07600
C1977       C  0.90557267  0.58239873  0.44716126    -0.02200
C1978       C  0.92711998  0.56678288  0.43033623    -0.02200
C1979       C  0.93382016  0.53689301  0.43924263     0.07800
C1980       C  0.91946033  0.52330550  0.46620649    -0.02400
Br1981     Br  0.92800279  0.48256629  0.47985302    -0.00900
Br1982     Br  0.88063496  0.51679002  0.01712017    -0.01000
Br1983     Br  0.94861868  0.58742935  0.39629086    -0.00900
Br1984     Br  0.89720858  0.62306255  0.43352816    -0.00900
C1985       C  0.80224837  0.54964349  0.43867254    -0.02100
C1986       C  0.79306324  0.56710169  0.46587550     0.07600
C1987       C  0.76373311  0.57378434  0.46806211    -0.02200
C1988       C  0.74511295  0.56398973  0.44320383    -0.02200
C1989       C  0.75526329  0.54899201  0.41501066     0.07800
C1990       C  0.78418192  0.54308471  0.41259583    -0.02400
Br1991     Br  0.80092061  0.52977914  0.37200564    -0.00900
Br1992     Br  0.83908569  0.53157712  0.43705343    -0.01000
Br1993     Br  0.70532989  0.57094189  0.44784228    -0.00900
Br1994     Br  0.74970471  0.59560500  0.00511169    -0.00900
C1995       C  0.78424752  0.58076392  0.07546957    -0.02100
C1996       C  0.79594893  0.56689487  0.04673547     0.07600
C1997       C  0.78701267  0.53702623  0.04024355    -0.02200
C1998       C  0.76351718  0.52461061  0.05667880    -0.02200
C1999       C  0.75297261  0.53791334  0.08568861     0.07800
C2000       C  0.76529396  0.56510372  0.09627901    -0.02400
Br2001     Br  0.75861219  0.58027027  0.14077438    -0.00900
Br2002     Br  0.79100069  0.62172508  0.08724099    -0.01000
Br2003     Br  0.74492824  0.49080341  0.03703796    -0.00900
Br2004     Br  0.80405736  0.51031617  0.51016952    -0.00900
C2005       C  0.87804394  0.91039464  0.16511591    -0.02100
C2006       C  0.88105490  0.89982005  0.19802928     0.07600
C2007       C  0.90866301  0.89296585  0.20704816    -0.02200
C2008       C  0.93113998  0.90933436  0.19332136    -0.02200
C2009       C  0.92656354  0.92823616  0.16575743     0.07800
C2010       C  0.90016905  0.92677295  0.15009555    -0.02400
Br2011     Br  0.89306466  0.94788621  0.10912518    -0.00900
Br2012     Br  0.84988688  0.89433200  0.13620204    -0.01000
Br2013     Br  0.96814545  0.90314294  0.21069635    -0.00900
Br2014     Br  0.91599459  0.85233917  0.21968623    -0.00900
C2015       C  0.92356718  0.90818993  0.31806627    -0.02100
C2016       C  0.93096172  0.93877263  0.31479734     0.07600
C2017       C  0.91848951  0.95596221  0.28946159    -0.02200
C2018       C  0.89802531  0.94321345  0.26891077    -0.02200
C2019       C  0.88840845  0.91340014  0.27412280     0.07800
C2020       C  0.90300363  0.89544989  0.29737223    -0.02400
Br2021     Br  0.89858369  0.85249734  0.29764642    -0.00900
Br2022     Br  0.94248058  0.88317025  0.35000325    -0.01000
Br2023     Br  0.88553332  0.96694430  0.23230080    -0.00900
Br2024     Br  0.93325399  0.49691911  0.28247933    -0.00900
C2025       C  0.79810303  0.97272090  0.28781235    -0.02100
C2026       C  0.79874176  0.94127158  0.29286630     0.07600
C2027       C  0.78606896  0.93014097  0.32256640    -0.02200
C2028       C  0.77305512  0.94948554  0.34538782    -0.02200
C2029       C  0.76629517  0.97903515  0.33572553     0.07800
C2030       C  0.78097589  0.99121789  0.30778142    -0.02400
Br2031     Br  0.77818887  0.53562798  0.29114732    -0.00900
Br2032     Br  0.82187280  0.99176826  0.25547003    -0.01000
Br2033     Br  0.76746227  0.93469360  0.39009922    -0.00900
Br2034     Br  0.78008088  0.88838376  0.33098383    -0.00900
C2035       C  0.75754596  0.93921838  0.22408942    -0.02100
C2036       C  0.78681161  0.93957290  0.21643486     0.07600
C2037       C  0.79557962  0.95807412  0.18962161    -0.02200
C2038       C  0.77647092  0.97606737  0.17201133    -0.02200
C2039       C  0.74740687  0.97386492  0.17797544     0.07800
C2040       C  0.73810528  0.95464410  0.20376164    -0.02400
Br2041     Br  0.69848484  0.94667136  0.20905894    -0.00900
Br2042     Br  0.74244370  0.91630798  0.26049516    -0.01000
Br2043     Br  0.79184156  0.50771402  0.14039985    -0.00900
Br2044     Br  0.83421516  0.96154530  0.17740640    -0.00900
C2045       C  0.74074029  0.70058888  0.29424288    -0.02100
C2046       C  0.73043620  0.71010247  0.32569563     0.07600
C2047       C  0.70650800  0.69535523  0.33842814    -0.02200
C2048       C  0.69229313  0.67507970  0.31842820    -0.02200
C2049       C  0.69573346  0.67663281  0.28363537     0.07800
C2050       C  0.72336940  0.68328794  0.27324284    -0.02400
Br2051     Br  0.73925149  0.66238256  0.23591093    -0.00900
Br2052     Br  0.77936794  0.70758435  0.28204984    -0.01000
Br2053     Br  0.68839806  0.63624408  0.33898357    -0.00900
Br2054     Br  0.69767627  0.69523714  0.38544384    -0.00900
C2055       C  0.69929871  0.78275431  0.40669274    -0.02100
C2056       C  0.72825012  0.78127461  0.41351657     0.07600
C2057       C  0.73942307  0.80316839  0.43466362    -0.02200
C2058       C  0.72148040  0.82204235  0.45322901    -0.02200
C2059       C  0.69200125  0.81780731  0.45269267     0.07800
C2060       C  0.68119897  0.79949058  0.42730628    -0.02400
Br2061     Br  0.64184515  0.79735205  0.41879611    -0.00900
Br2062     Br  0.68413036  0.76632473  0.36665756    -0.01000
Br2063     Br  0.73728952  0.85580156  0.47605234    -0.00900
Br2064     Br  0.77919847  0.81025065  0.43442877    -0.00900
C2065       C  0.78007519  0.79896944  0.30448701    -0.02100
C2066       C  0.79530593  0.78914059  0.33269182     0.07600
C2067       C  0.81893296  0.80665891  0.34139574    -0.02200
C2068       C  0.82645362  0.83291915  0.32309725    -0.02200
C2069       C  0.81325946  0.84018389  0.29216407     0.07800
C2070       C  0.78809668  0.82455492  0.28595959    -0.02400
Br2071     Br  0.75934349  0.84298647  0.25937611    -0.00900
Br2072     Br  0.74764097  0.77858704  0.28847232    -0.01000
Br2073     Br  0.84770201  0.86145504  0.34867636    -0.00900
Br2074     Br  0.84061628  0.79738981  0.38046710    -0.00900
C2075       C  0.83682851  0.68382768  0.45666837    -0.02100
C2076       C  0.83104322  0.65283675  0.45328049     0.07600
C2077       C  0.81336003  0.64497765  0.42670493    -0.02200
C2078       C  0.79470366  0.66578564  0.41391551    -0.02200
C2079       C  0.80068725  0.69700086  0.41525157     0.07800
C2080       C  0.82197921  0.70571499  0.43774427    -0.02400
Br2081     Br  0.82822367  0.74734370  0.44721622    -0.00900
Br2082     Br  0.86811429  0.69594744  0.48310146    -0.01000
Br2083     Br  0.75759024  0.64883386  0.40802776    -0.00900
Br2084     Br  0.81936808  0.61218194  0.39678606    -0.00900
C2085       C  0.73636134  0.79468418  0.04422403    -0.02100
C2086       C  0.73024908  0.78716583  0.07746027     0.07600
C2087       C  0.70243820  0.79352231  0.08878280    -0.02200
C2088       C  0.68244893  0.80608708  0.06650844    -0.02200
C2089       C  0.68966398  0.81138352  0.03254922     0.07800
C2090       C  0.71451895  0.79763669  0.02185434    -0.02400
Br2091     Br  0.70665397  0.76123136  0.49689559    -0.00900
Br2092     Br  0.77404417  0.80182974  0.02845631    -0.01000
Br2093     Br  0.64417006  0.80883247  0.08165615    -0.00900
Br2094     Br  0.69075329  0.78761083  0.13423782    -0.00900
C2095       C  0.70076546  0.71067001  0.14940788    -0.02100
C2096       C  0.72519274  0.72261421  0.16331919     0.07600
C2097       C  0.72441074  0.72963909  0.19706022    -0.02200
C2098       C  0.70189641  0.71960502  0.21728827    -0.02200
C2099       C  0.68299811  0.69817759  0.20489195     0.07800
C2100       C  0.67870935  0.70070960  0.17017140    -0.02400
Br2101     Br  0.64165151  0.70347570  0.15166035    -0.00900
Br2102     Br  0.69524346  0.71223322  0.10237446    -0.01000
Br2103     Br  0.69083656  0.74375310  0.25428892    -0.00900
Br2104     Br  0.75404418  0.75304472  0.21470113    -0.00900
C2105       C  0.78812950  0.82289608  0.15913954    -0.02100
C2106       C  0.79867042  0.79362008  0.16228923     0.07600
C2107       C  0.81690674  0.78748224  0.18905023    -0.02200
C2108       C  0.82419386  0.81044280  0.21183702    -0.02200
C2109       C  0.81066534  0.83885622  0.21086765     0.07800
C2110       C  0.79164667  0.84394157  0.18445289    -0.02400
Br2111     Br  0.76679912  0.87781857  0.18312395    -0.00900
Br2112     Br  0.77094334  0.83589036  0.11841661    -0.01000
Br2113     Br  0.85403086  0.80292372  0.24249723    -0.00900
Br2114     Br  0.83127269  0.74749504  0.19566431    -0.00900
C2115       C  0.82942927  0.69284723  0.08316739    -0.02100
C2116       C  0.80163992  0.70358762  0.07830734     0.07600
C2117       C  0.78644508  0.69026921  0.05203410    -0.02200
C2118       C  0.79973242  0.67252255  0.02795647    -0.02200
C2119       C  0.82731995  0.66207915  0.03233620     0.07800
C2120       C  0.84212893  0.67287632  0.06009019    -0.02400
Br2121     Br  0.88019248  0.65985802  0.06703386    -0.00900
Br2122     Br  0.84810195  0.69786482  0.12485761    -0.01000
Br2123     Br  0.77772918  0.66123182  0.99083114    -0.00900
Br2124     Br  0.74587626  0.68990599  0.05160355    -0.00900
C2125       C  0.78391318  0.72739653  0.60097358     0.86300
C2126       C  0.76669035  0.74885603  0.57923089    -0.54000
C2127       C  0.75004639  0.76920698  0.59521636     0.09200
C2128       C  0.75374347  0.76702614  0.63310219     0.20200
C2129       C  0.80136521  0.74968793  0.62187074    -0.54700
C2130       C  0.78560039  0.76999477  0.63943139     0.09300
C2131       C  0.76233782  0.71370192  0.62534381    -0.54200
C2132       C  0.74624660  0.73417317  0.64186472     0.09900
H2133       H  0.76641098  0.74631562  0.55266978     0.14400
H2134       H  0.74189147  0.78394881  0.64716251     0.00100
H2135       H  0.82396704  0.75117293  0.62130186     0.14700
H2136       H  0.75927493  0.68966455  0.62824603     0.14500
C2137       C  0.78866124  0.72088502  0.89266185     0.86300
C2138       C  0.77155864  0.70636732  0.86524713    -0.54000
C2139       C  0.75366411  0.72462975  0.84921134     0.09200
C2140       C  0.75626035  0.75787164  0.86018913     0.20200
C2141       C  0.80475485  0.74508891  0.87194199    -0.54700
C2142       C  0.78779017  0.76524067  0.85479651     0.09300
C2143       C  0.76772082  0.73873130  0.91434230    -0.54200
C2144       C  0.75115344  0.75850743  0.89752129     0.09900
H2145       H  0.77489589  0.68373396  0.85646023     0.14400
H2146       H  0.74193820  0.77403955  0.84903136     0.00100
H2147       H  0.82733106  0.74445647  0.86929424     0.14700
H2148       H  0.76679469  0.73653086  0.94112638     0.14500
C2149       C  0.82513063  0.89664811  0.71375675     0.45300
H2150       H  0.82053692  0.89616269  0.68746670    -0.03800
C2151       C  0.83409759  0.89876873  0.77629579     0.45300
H2152       H  0.83797690  0.90246323  0.80242377    -0.03800
C2153       C  0.80731067  0.92142029  0.73167898    -0.17500
C2154       C  0.81825617  0.86643812  0.73126601    -0.17200
C2155       C  0.85655517  0.90168669  0.72120366    -0.17600
C2156       C  0.81230929  0.92225883  0.76518367    -0.17600
C2157       C  0.82232826  0.86733894  0.76580314    -0.17100
C2158       C  0.86100408  0.90432951  0.75496521    -0.17500
C2159       C  0.83782988  0.60436326  0.53546612     0.45300
H2160       H  0.83771537  0.60791492  0.56239762    -0.03800
C2161       C  0.84340273  0.59562257  0.97301579     0.45300
H2162       H  0.84617356  0.59069322  0.94689637    -0.03800
C2163       C  0.81411307  0.58325106  0.52259699    -0.17500
C2164       C  0.83484733  0.63416529  0.51497663    -0.17200
C2165       C  0.86586409  0.58996708  0.52479078    -0.17600
C2166       C  0.81754044  0.57992868  0.98938615    -0.17600
C2167       C  0.83958994  0.62934235  0.98057131    -0.17100
C2168       C  0.86968107  0.58458640  0.99150877    -0.17500
O2169       O  0.01085840  0.53455788  0.86064981    -0.58000
C2170       C  0.95617455  0.51792247  0.91811689     0.74600
O2171       O  0.96787038  0.97409093  0.82375086    -0.59200
C2172       C  0.03276725  0.52566887  0.84597509     0.74600
C2173       C  0.03141308  0.94466177  0.90732752     0.77000
Cd2174     Cd  0.99159653  0.98593476  0.87626866     1.37500
O2175       O  0.95592338  0.51931672  0.88684582    -0.58000
O2176       O  0.02330673  0.46473619  0.92365726    -0.56800
C2177       C  0.95060876  0.95496776  0.83507214     0.76900
O2178       O  0.02526872  0.94328312  0.87702069    -0.59200
O2179       O  0.97257977  0.00358712  0.93017558    -0.57700
O2180       O  0.02423975  0.00432123  0.83211741    -0.57600
O2181       O  0.95394588  0.44837795  0.86285794    -0.56800
C2182       C  0.15347527  0.89463891  0.52925710     0.45300
H2183       H  0.15294916  0.89598414  0.55592422    -0.03800
C2184       C  0.15775492  0.88971802  0.96684019     0.45300
H2185       H  0.16148501  0.88667692  0.94041834    -0.03800
C2186       C  0.17933237  0.91160241  0.51566414    -0.17500
C2187       C  0.15525551  0.86094653  0.51767829    -0.17200
C2188       C  0.12857526  0.91011849  0.51102907    -0.17600
C2189       C  0.18167724  0.90938352  0.98171520    -0.17600
C2190       C  0.15852354  0.85921451  0.98505870    -0.17100
C2191       C  0.12901328  0.90377093  0.97749186    -0.17500
C2192       C  0.14542370  0.59114715  0.71848674     0.45300
H2193       H  0.14261230  0.58753217  0.69179885    -0.03800
C2194       C  0.14942441  0.59815510  0.78155937     0.45300
H2195       H  0.15058713  0.60130396  0.80861773    -0.03800
C2196       C  0.17117088  0.57433781  0.73304455    -0.17500
C2197       C  0.14927504  0.62475427  0.72772702    -0.17200
C2198       C  0.11949851  0.57953727  0.73816187    -0.17600
C2199       C  0.17287206  0.57721851  0.76712549    -0.17600
C2200       C  0.15160306  0.62839463  0.76188250    -0.17100
C2201       C  0.12126332  0.58385938  0.77176926    -0.17500
C2202       C  0.19373485  0.72393348  0.85087598     0.86300
C2203       C  0.21430835  0.70468174  0.87060004    -0.54000
C2204       C  0.23246371  0.71991463  0.88987581     0.09200
C2205       C  0.22806857  0.75441088  0.88820409     0.20200
C2206       C  0.17897856  0.74285586  0.87859284    -0.54700
C2207       C  0.19683543  0.76024903  0.89780812     0.09300
C2208       C  0.21061076  0.74866809  0.83299206    -0.54200
C2209       C  0.22960852  0.76291347  0.85178294     0.09900
H2210       H  0.21323949  0.68038655  0.87039461     0.14400
H2211       H  0.24441764  0.76710424  0.90069001     0.00100
H2212       H  0.15663503  0.74422730  0.88158767     0.14700
H2213       H  0.20807716  0.75428321  0.80697513     0.14500
C2214       C  0.18972028  0.72276729  0.64412584     0.86300
C2215       C  0.20843269  0.73956295  0.66893219    -0.54000
C2216       C  0.22623313  0.76062500  0.65520189     0.09200
C2217       C  0.22387070  0.76223339  0.61674576     0.20200
C2218       C  0.17479651  0.74718981  0.62416821    -0.54700
C2219       C  0.19217198  0.76776984  0.60930290     0.09300
C2220       C  0.21125003  0.70976759  0.61949319    -0.54200
C2221       C  0.22964581  0.72941932  0.60502056     0.09900
H2222       H  0.20813224  0.73443256  0.69524348     0.14400
H2223       H  0.23779666  0.77975410  0.60642617     0.00100
H2224       H  0.15225753  0.74744517  0.62081464     0.14700
H2225       H  0.21275836  0.68614870  0.61444428     0.14500
O2226       O  0.96075781  0.53182886  0.62649874    -0.58000
C2227       C  0.02976284  0.51706862  0.67024008     0.74600
O2228       O  0.95461882  0.95147487  0.62008110    -0.59200
C2229       C  0.95560008  0.53260732  0.59589367     0.74600
C2230       C  0.03456540  0.96387153  0.58267698     0.77000
Cd2231     Cd  0.99175080  0.98955882  0.62467382     1.37500
O2232       O  0.00748226  0.52953845  0.66066522    -0.58000
O2233       O  0.02643167  0.48989520  0.57876772    -0.56800
C2234       C  0.94895519  0.94939064  0.65060070     0.76900
O2235       O  0.02235954  0.94856901  0.60504279    -0.59200
O2236       O  0.03202471  0.99076604  0.66247201    -0.57700
O2237       O  0.96611493  0.01268782  0.57800607    -0.57600
O2238       O  0.96582101  0.46098635  0.66887606    -0.56800
C2239       C  0.32803972  0.85545072  0.78520416     0.45300
H2240       H  0.32591691  0.85631393  0.81226595    -0.03800
C2241       C  0.33017473  0.84992019  0.72211680     0.45300
H2242       H  0.33098599  0.84558267  0.69600170    -0.03800
C2243       C  0.30478136  0.83467083  0.77113729    -0.17500
C2244       C  0.32627248  0.88666891  0.76703410    -0.17200
C2245       C  0.35626617  0.84238928  0.77379419    -0.17600
C2246       C  0.30577500  0.83161794  0.73720106    -0.17600
C2247       C  0.32422527  0.88296926  0.73222453    -0.17100
C2248       C  0.35786278  0.84018207  0.73984034    -0.17500
C2249       C  0.34328265  0.65324969  0.97189326     0.45300
H2250       H  0.34941361  0.65294463  0.94593650    -0.03800
C2251       C  0.33540717  0.65240507  0.53494292     0.45300
H2252       H  0.33150748  0.65296966  0.56181027    -0.03800
C2253       C  0.31749774  0.67291832  0.97971180    -0.17500
C2254       C  0.33650751  0.62172898  0.98732684    -0.17200
C2255       C  0.36785532  0.66700040  0.99107823    -0.17600
C2256       C  0.31343027  0.67171998  0.51521352    -0.17600
C2257       C  0.33437538  0.61984194  0.52125945    -0.17100
C2258       C  0.36443318  0.66489898  0.52485046    -0.17500
C2259       C  0.29369460  0.52663652  0.89832784     0.86300
C2260       C  0.27749281  0.50381253  0.91942806    -0.54000
C2261       C  0.26149929  0.98267809  0.90206497     0.09200
C2262       C  0.26394586  0.98631317  0.86396497     0.20200
C2263       C  0.31119162  0.50723669  0.87358497    -0.54700
C2264       C  0.29562260  0.98502946  0.85547498     0.09300
C2265       C  0.27184896  0.54103059  0.87515040    -0.54200
C2266       C  0.25555715  0.52158271  0.85762973     0.09900
H2267       H  0.27730925  0.50482954  0.94625733     0.14400
H2268       H  0.25208188  0.96839984  0.85197891     0.00100
H2269       H  0.33341190  0.50984710  0.86896293     0.14700
H2270       H  0.26982142  0.56521785  0.87264009     0.14500
C2271       C  0.29366918  0.52176308  0.60211262     0.86300
C2272       C  0.27143261  0.53940673  0.62215568    -0.54000
C2273       C  0.25221105  0.52176916  0.63877030     0.09200
C2274       C  0.25571656  0.98711734  0.63340737     0.20200
C2275       C  0.30621272  0.49995783  0.62727530    -0.54700
C2276       C  0.28630289  0.98050466  0.64359525     0.09300
C2277       C  0.27576043  0.50194966  0.57905066    -0.54200
C2278       C  0.25537378  0.98420388  0.59555144     0.09900
H2279       H  0.27148215  0.56370565  0.62400503     0.14400
H2280       H  0.23983747  0.97256629  0.64561702     0.00100
H2281       H  0.32856306  0.49848112  0.63173609     0.14700
H2282       H  0.27703019  0.50243201  0.55231806     0.14500
O2283       O  0.47808038  0.74365690  0.93256336    -0.58000
C2284       C  0.53234314  0.72339233  0.84375939     0.74600
O2285       O  0.47050490  0.78427790  0.83086194    -0.59200
C2286       C  0.46032839  0.72602957  0.92010975     0.74600
C2287       C  0.53457712  0.80706511  0.90689253     0.77000
Cd2288     Cd  0.49576122  0.76363063  0.87935917     1.37500
O2289       O  0.52959090  0.72215242  0.87487029    -0.58000
O2290       O  0.52360619  0.78655625  0.92451006    -0.56800
C2291       C  0.45139553  0.79689064  0.84768551     0.76900
O2292       O  0.52678704  0.80820933  0.87712042    -0.59200
O2293       O  0.51713327  0.74211041  0.82863761    -0.57700
O2294       O  0.46031126  0.72433374  0.88885916    -0.57600
O2295       O  0.45366677  0.79554709  0.87882953    -0.56800
C2296       C  0.70336472  0.53135991  0.84728783     0.86300
C2297       C  0.72653449  0.51367039  0.82901304    -0.54000
C2298       C  0.74310696  0.99730930  0.85041280     0.09200
C2299       C  0.73487078  0.99921342  0.88756353     0.20200
C2300       C  0.68851778  0.50755721  0.86863813    -0.54700
C2301       C  0.70331355  0.99119548  0.89002371     0.09300
C2302       C  0.72011484  0.55085413  0.87181804    -0.54200
C2303       C  0.73795405  0.53480292  0.89177745     0.09900
H2304       H  0.72957443  0.51395187  0.80269427     0.14400
H2305       H  0.74781423  0.98632431  0.90493625     0.00100
H2306       H  0.66443849  0.00417333  0.86749479     0.14700
H2307       H  0.71865676  0.57515441  0.87244963     0.14500
C2308       C  0.64725358  0.65122622  0.77832397     0.45300
H2309       H  0.64691225  0.65047286  0.80537156    -0.03800
C2310       C  0.64404737  0.65467430  0.71506960     0.45300
H2311       H  0.64173976  0.65481348  0.68816483    -0.03800
C2312       C  0.67174398  0.66986655  0.76302046    -0.17500
C2313       C  0.65053729  0.62036205  0.76183121    -0.17200
C2314       C  0.61929099  0.66490957  0.76621812    -0.17600
C2315       C  0.66771270  0.67531922  0.72902415    -0.17600
C2316       C  0.64889452  0.62191238  0.72760614    -0.17100
C2317       C  0.61760214  0.66593421  0.73241588    -0.17500
C2318       C  0.68735032  0.52563395  0.64305109     0.86300
C2319       C  0.70785354  0.54150477  0.61893399    -0.54000
C2320       C  0.72786603  0.52408838  0.60502296     0.09200
C2321       C  0.72444338  0.99226843  0.61652503     0.20200
C2322       C  0.67526230  0.49969488  0.62251857    -0.54700
C2323       C  0.69397416  0.98307211  0.60766291     0.09300
C2324       C  0.70714211  0.51018334  0.66794799    -0.54200
C2325       C  0.72553112  0.99273146  0.65486116     0.09900
H2326       H  0.70836405  0.56538389  0.61442493     0.14400
H2327       H  0.74107748  0.97824205  0.60527906     0.00100
H2328       H  0.65168749  0.99740130  0.62031476     0.14700
H2329       H  0.70593881  0.51420460  0.69435327     0.14500
C2330       C  0.65755259  0.86088865  0.96027887     0.45300
H2331       H  0.65919582  0.86028922  0.93353940    -0.03800
C2332       C  0.65366871  0.85983921  0.52408348     0.45300
H2333       H  0.65386836  0.86032189  0.55135797    -0.03800
C2334       C  0.67575418  0.83537887  0.97548335    -0.17500
C2335       C  0.66858737  0.89034763  0.97466041    -0.17200
C2336       C  0.62705072  0.85783368  0.97394213    -0.17600
C2337       C  0.67199134  0.83419965  0.50952940    -0.17600
C2338       C  0.66473582  0.89029548  0.50913494    -0.17100
C2339       C  0.62422848  0.85475055  0.50926126    -0.17500
O2340       O  0.45495479  0.72597128  0.62722483    -0.58000
C2341       C  0.52935336  0.72480251  0.65899602     0.74600
O2342       O  0.53293908  0.79729953  0.61604840    -0.59200
C2343       C  0.45230629  0.72276490  0.59640375     0.74600
C2344       C  0.45370402  0.79944197  0.66149197     0.77000
Cd2345     Cd  0.49220171  0.76347009  0.62362395     1.37500
O2346       O  0.52670590  0.72217781  0.62801816    -0.58000
O2347       O  0.47541098  0.78802236  0.67402934    -0.54000
C2348       C  0.53187906  0.79925423  0.58485883     0.76900
O2349       O  0.45170698  0.79804845  0.63032014    -0.59200
O2350       O  0.51335660  0.74334083  0.67326127    -0.57700
O2351       O  0.46923532  0.73709587  0.57785116    -0.57600
O2352       O  0.51113408  0.78659571  0.57159222    -0.56800
C2353       C  0.58989625  0.85392780  0.55891918    -0.02100
C2354       C  0.60086606  0.84035444  0.52980740     0.07600
C2355       C  0.59017153  0.81180068  0.52118302    -0.02200
C2356       C  0.56661974  0.79944258  0.53766373    -0.02200
C2357       C  0.55455421  0.81418489  0.56510773     0.07800
C2358       C  0.56650777  0.84135913  0.57578489    -0.02400
Br2359     Br  0.54983613  0.86249386  0.61267894    -0.00900
Br2360     Br  0.60737013  0.89163586  0.07388025    -0.01000
Br2361     Br  0.55226738  0.76100145  0.52358187    -0.00900
Br2362     Br  0.61050646  0.78659381  0.49113956    -0.00900
C2363       C  0.65759043  0.94194955  0.53647416    -0.02100
C2364       C  0.67364807  0.91543000  0.53238459     0.07600
C2365       C  0.69560093  0.91077562  0.55538094    -0.02200
C2366       C  0.70090919  0.93158471  0.58102047    -0.02200
C2367       C  0.68701730  0.95963322  0.58191154     0.07800
C2368       C  0.66641391  0.96511996  0.55764603    -0.02400
Br2369     Br  0.65476276  0.50509727  0.54883371    -0.00900
Br2370     Br  0.62403858  0.94658688  0.01991418    -0.01000
Br2371     Br  0.72546709  0.91971986  0.61645403    -0.00900
Br2372     Br  0.71818475  0.87522791  0.55389419    -0.00900
C2373       C  0.57812193  0.66403205  0.69115809    -0.02100
C2374       C  0.59459679  0.68068149  0.71345517     0.07600
C2375       C  0.59067972  0.71204186  0.71541666    -0.02200
C2376       C  0.56924237  0.72613320  0.69764633    -0.02200
C2377       C  0.55144508  0.70909660  0.67752081     0.07800
C2378       C  0.55609693  0.67806349  0.67396115    -0.02400
Br2379     Br  0.53173347  0.65453492  0.64650253    -0.00900
Br2380     Br  0.58593667  0.62224911  0.68295271    -0.01000
Br2381     Br  0.56614830  0.76951397  0.69848870    -0.00900
Br2382     Br  0.61713485  0.73693326  0.73787700    -0.00900
C2383       C  0.65054856  0.54198705  0.68860654    -0.02100
C2384       C  0.66613089  0.54801948  0.65925179     0.07600
C2385       C  0.66584707  0.57807354  0.64870962    -0.02200
C2386       C  0.66520051  0.60075260  0.67209838    -0.02200
C2387       C  0.65203367  0.59588217  0.70328882     0.07800
C2388       C  0.64134964  0.56627947  0.70911722    -0.02400
Br2389     Br  0.61278097  0.55900448  0.74221627    -0.00900
Br2390     Br  0.63918753  0.50144766  0.69816942    -0.01000
Br2391     Br  0.69109154  0.63251738  0.66269389    -0.00900
Br2392     Br  0.65867031  0.58867104  0.60318304    -0.00900
C2393       C  0.66123681  0.56734667  0.83594017    -0.02100
C2394       C  0.68369216  0.54929952  0.82424207     0.07600
C2395       C  0.68877680  0.54993225  0.78989690    -0.02200
C2396       C  0.68231435  0.57556882  0.77188105    -0.02200
C2397       C  0.65973086  0.59374277  0.78219099     0.07800
C2398       C  0.64737354  0.58712782  0.81371002    -0.02400
Br2399     Br  0.61225895  0.60494465  0.82724340    -0.00900
Br2400     Br  0.64913842  0.56553192  0.88159373    -0.01000
Br2401     Br  0.70931299  0.58675409  0.73850039    -0.00900
Br2402     Br  0.68661893  0.51330676  0.76521549    -0.00900
C2403       C  0.69417437  0.91186969  0.92197826    -0.02100
C2404       C  0.67712636  0.91590468  0.95115289     0.07600
C2405       C  0.66144182  0.94270845  0.95109444    -0.02200
C2406       C  0.67274043  0.96859566  0.93590914    -0.02200
C2407       C  0.69234698  0.96535154  0.90986614     0.07800
C2408       C  0.69916605  0.93619913  0.90012440    -0.02400
Br2409     Br  0.70789145  0.92919488  0.85390580    -0.00900
Br2410     Br  0.70939381  0.87452922  0.90724225    -0.01000
Br2411     Br  0.66407500  0.50698563  0.95022936    -0.00900
Br2412     Br  0.61990916  0.94065509  0.44406676    -0.00900
C2413       C  0.54751516  0.68217966  0.80538370    -0.02100
C2414       C  0.55418966  0.70603099  0.82641964     0.07600
C2415       C  0.58224107  0.71421710  0.83070184    -0.02200
C2416       C  0.60345351  0.70070872  0.81163756    -0.02200
C2417       C  0.59708095  0.67743112  0.78914475     0.07800
C2418       C  0.56898858  0.66715794  0.78777273    -0.02400
Br2419     Br  0.55988504  0.63100806  0.76446416    -0.00900
Br2420     Br  0.50903536  0.66955169  0.80191212    -0.01000
Br2421     Br  0.64034976  0.71689687  0.81570073    -0.00900
Br2422     Br  0.59149688  0.74494210  0.86237771    -0.00900
C2423       C  0.55167842  0.84193348  0.95112314    -0.02100
C2424       C  0.55592154  0.82787098  0.92032429     0.07600
C2425       C  0.58028188  0.83538371  0.90191909    -0.02200
C2426       C  0.60209126  0.85150824  0.91705389    -0.02200
C2427       C  0.60101256  0.85656413  0.95180616     0.07800
C2428       C  0.57367412  0.85834127  0.96538606    -0.02400
Br2429     Br  0.56065769  0.88846603  0.49788586    -0.00900
Br2430     Br  0.51525918  0.84132373  0.97219441    -0.01000
Br2431     Br  0.62644230  0.87414893  0.88758490    -0.00900
Br2432     Br  0.58431843  0.82416015  0.85600026    -0.00900
C2433       C  0.42263602  0.72613100  0.96322569    -0.02100
C2434       C  0.43920925  0.70992105  0.94066694     0.07600
C2435       C  0.43313665  0.67952663  0.93499453    -0.02200
C2436       C  0.40982424  0.66569689  0.95066040    -0.02200
C2437       C  0.39287240  0.68169306  0.97367317     0.07800
C2438       C  0.39951282  0.71236323  0.97904236    -0.02400
Br2439     Br  0.37887632  0.73584208  0.50737417    -0.00900
Br2440     Br  0.43016250  0.76836357  0.97060189    -0.01000
Br2441     Br  0.40146063  0.62514138  0.93870802    -0.00900
Br2442     Br  0.45778820  0.65644591  0.90668364    -0.00900
C2443       C  0.41394619  0.66468784  0.54640182    -0.02100
C2444       C  0.38599119  0.67503825  0.54935795     0.07600
C2445       C  0.37975149  0.69678411  0.57394415    -0.02200
C2446       C  0.40161610  0.71194188  0.58985251    -0.02200
C2447       C  0.42964785  0.70440752  0.58278968     0.07800
C2448       C  0.43576854  0.67991484  0.56229083    -0.02400
Br2449     Br  0.47410763  0.66715274  0.55640523    -0.00900
Br2450     Br  0.42222074  0.62805526  0.52319350    -0.01000
Br2451     Br  0.39318574  0.74543134  0.61865836    -0.00900
Br2452     Br  0.34209352  0.70836881  0.58524368    -0.00900
C2453       C  0.29835020  0.59555184  0.95566313    -0.02100
C2454       C  0.32660308  0.59639651  0.96567888     0.07600
C2455       C  0.34386451  0.57163894  0.95740962    -0.02200
C2456       C  0.33460819  0.54941126  0.93467359    -0.02200
C2457       C  0.30684346  0.55039319  0.92193066     0.07800
C2458       C  0.28833045  0.57099765  0.93777898    -0.02400
Br2459     Br  0.24937877  0.56103720  0.94560915    -0.00900
Br2460     Br  0.27074743  0.62423707  0.97152832    -0.01000
Br2461     Br  0.35851721  0.51518694  0.92746515    -0.00900
Br2462     Br  0.37797803  0.56535739  0.98171068    -0.00900
C2463       C  0.31692697  0.56562429  0.53158532    -0.02100
C2464       C  0.33015000  0.59191574  0.54348248     0.07600
C2465       C  0.33887910  0.59042327  0.57741224    -0.02200
C2466       C  0.32873653  0.56672189  0.59829496    -0.02200
C2467       C  0.31563024  0.54156714  0.58393879     0.07800
C2468       C  0.31953215  0.53936757  0.54971634    -0.02400
Br2469     Br  0.33027245  0.50289014  0.52806656    -0.00900
Br2470     Br  0.27898613  0.56622133  0.02091596    -0.01000
Br2471     Br  0.33547201  0.56733525  0.64504651    -0.00900
Br2472     Br  0.36596206  0.61739781  0.59571154    -0.00900
C2473       C  0.41870256  0.79185100  0.70681796    -0.02100
C2474       C  0.43068386  0.81098938  0.68265393     0.07600
C2475       C  0.41989694  0.84006107  0.67829108    -0.02200
C2476       C  0.39755149  0.85024812  0.69846145    -0.02200
C2477       C  0.38387313  0.83040138  0.72112370     0.07800
C2478       C  0.39525893  0.80120490  0.72549235    -0.02400
Br2479     Br  0.37893193  0.77253159  0.75573077    -0.00900
Br2480     Br  0.43319987  0.75152030  0.71279409    -0.01000
Br2481     Br  0.38904725  0.89256757  0.69749246    -0.00900
Br2482     Br  0.43642501  0.86625466  0.64520626    -0.00900
C2483       C  0.43026677  0.83522701  0.80953071    -0.02100
C2484       C  0.42690189  0.81115467  0.83187227     0.07600
C2485       C  0.39977876  0.80092935  0.83980232    -0.02200
C2486       C  0.37638563  0.81285829  0.82321615    -0.02200
C2487       C  0.37990686  0.83437112  0.79730921     0.07800
C2488       C  0.40673813  0.84765871  0.79363850    -0.02400
Br2489     Br  0.41048679  0.88669906  0.77391819    -0.00900
Br2490     Br  0.46699329  0.85227380  0.80218422    -0.01000
Br2491     Br  0.34027565  0.79959468  0.83806584    -0.00900
Br2492     Br  0.39478317  0.76896321  0.87214669    -0.00900
C2493       C  0.32395636  0.94563216  0.77661394    -0.02100
C2494       C  0.32689311  0.91566588  0.78844553     0.07600
C2495       C  0.33036910  0.91356890  0.82336771    -0.02200
C2496       C  0.31848509  0.93508395  0.84459751    -0.02200
C2497       C  0.30817040  0.96228432  0.83201068     0.07800
C2498       C  0.31297738  0.96835991  0.79793707    -0.02400
Br2499     Br  0.30615942  0.00811021  0.78095884    -0.00900
Br2500     Br  0.34511687  0.95839144  0.73819425    -0.01000
Br2501     Br  0.31862507  0.92759082  0.89136922    -0.00900
Br2502     Br  0.36098860  0.89108369  0.84213509    -0.00900
C2503       C  0.32160800  0.90794091  0.67250868    -0.02100
C2504       C  0.31222332  0.90531276  0.70658466     0.07600
C2505       C  0.28924140  0.92394962  0.71552984    -0.02200
C2506       C  0.28121441  0.94862326  0.69565674    -0.02200
C2507       C  0.29474886  0.95450819  0.66515661     0.07800
C2508       C  0.31422999  0.93332683  0.65316047    -0.02400
Br2509     Br  0.32822347  0.93694393  0.60775003    -0.00900
Br2510     Br  0.33924215  0.87645791  0.64654069    -0.01000
Br2511     Br  0.25190420  0.97464453  0.71138041    -0.00900
Br2512     Br  0.26583582  0.91437483  0.75297188    -0.00900
C2513       C  0.25563234  0.81523681  0.72040881    -0.02100
C2514       C  0.28519436  0.81350511  0.71581484     0.07600
C2515       C  0.29490914  0.79437322  0.68996507    -0.02200
C2516       C  0.27589756  0.77883984  0.66928222    -0.02200
C2517       C  0.24664300  0.77900514  0.67577108     0.07800
C2518       C  0.23706232  0.79655208  0.70268386    -0.02400
Br2519     Br  0.19815037  0.79569698  0.71614429    -0.00900
Br2520     Br  0.23881227  0.84569009  0.74734871    -0.01000
Br2521     Br  0.29107746  0.75595502  0.63312490    -0.00900
Br2522     Br  0.33434494  0.78617901  0.68371750    -0.00900
C2523       C  0.26382689  0.73272143  0.55435353    -0.02100
C2524       C  0.25268909  0.71728828  0.58219633     0.07600
C2525       C  0.26344075  0.68820266  0.58802195    -0.02200
C2526       C  0.27722715  0.67244519  0.56260443    -0.02200
C2527       C  0.29001418  0.68764320  0.53523850     0.07800
C2528       C  0.28503077  0.71924560  0.53434460    -0.02400
Br2529     Br  0.30888765  0.74944799  0.01470636    -0.00900
Br2530     Br  0.25278898  0.77309657  0.54436103    -0.01000
Br2531     Br  0.27626859  0.62988431  0.56722934    -0.00900
Br2532     Br  0.26501429  0.67161198  0.63259771    -0.00900
C2533       C  0.29506197  0.67143409  0.91909279    -0.02100
C2534       C  0.29934748  0.68514424  0.95125417     0.07600
C2535       C  0.28601157  0.71274193  0.95471300    -0.02200
C2536       C  0.25876297  0.71441577  0.94270201    -0.02200
C2537       C  0.25455520  0.70479553  0.91035303     0.07800
C2538       C  0.27263574  0.68170400  0.89870087    -0.02400
Br2539     Br  0.26595587  0.66190888  0.85693715    -0.00900
Br2540     Br  0.31850192  0.64098527  0.89888477    -0.01000
Br2541     Br  0.22887061  0.70536463  0.97326745    -0.00900
Br2542     Br  0.31264484  0.74124825  0.43560374    -0.00900
C2543       C  0.27285411  0.76901888  0.81860964    -0.02100
C2544       C  0.25126369  0.78247540  0.83667766     0.07600
C2545       C  0.24921113  0.81384255  0.83694323    -0.02200
C2546       C  0.26820519  0.83112801  0.81775259    -0.02200
C2547       C  0.28576654  0.81693022  0.79376851     0.07800
C2548       C  0.28714040  0.78520007  0.79409776    -0.02400
Br2549     Br  0.31013495  0.76242623  0.76427876    -0.00900
Br2550     Br  0.28785668  0.73132829  0.83323302    -0.01000
Br2551     Br  0.26865961  0.87374337  0.82451232    -0.00900
Br2552     Br  0.22097547  0.83290755  0.86396345    -0.00900
C2553       C  0.21935218  0.56081997  0.84139380    -0.02100
C2554       C  0.23297345  0.53345103  0.83437897     0.07600
C2555       C  0.22457247  0.51894273  0.80505500    -0.02200
C2556       C  0.20277820  0.53117171  0.78537417    -0.02200
C2557       C  0.19424136  0.56164397  0.78928295     0.07800
C2558       C  0.20510189  0.57668178  0.81698264    -0.02400
Br2559     Br  0.20346964  0.61920288  0.82327884    -0.00900
Br2560     Br  0.20872725  0.57148331  0.88536571    -0.01000
Br2561     Br  0.18240265  0.50363130  0.75833449    -0.00900
Br2562     Br  0.23511525  0.97667845  0.79278847    -0.00900
C2563       C  0.22168091  0.56500757  0.71237990    -0.02100
C2564       C  0.19250061  0.55876120  0.71065617     0.07600
C2565       C  0.18357513  0.53872056  0.68556027    -0.02200
C2566       C  0.20268747  0.52731674  0.66180547    -0.02200
C2567       C  0.23148681  0.53405199  0.66353528     0.07800
C2568       C  0.24086477  0.55141939  0.69029327    -0.02400
Br2569     Br  0.28038296  0.55388902  0.69951020    -0.00900
Br2570     Br  0.23681127  0.59382875  0.74255162    -0.01000
Br2571     Br  0.18868541  0.50275737  0.62660117    -0.00900
Br2572     Br  0.14547006  0.52475627  0.68372009    -0.00900
C2573       C  0.08126650  0.57760249  0.69507505    -0.02100
C2574       C  0.09569587  0.56356319  0.72147410     0.07600
C2575       C  0.08783859  0.53391305  0.73094321    -0.02200
C2576       C  0.06528918  0.51941772  0.71552056    -0.02200
C2577       C  0.05122245  0.53349955  0.68918204     0.07800
C2578       C  0.05942239  0.56258025  0.67891825    -0.02400
Br2579     Br  0.04209098  0.58151812  0.64100230    -0.00900
Br2580     Br  0.09022982  0.61798677  0.68091675    -0.01000
Br2581     Br  0.05179239  0.98229515  0.73189815    -0.00900
Br2582     Br  0.10964825  0.51074819  0.76179872    -0.00900
C2583       C  0.16522840  0.64515616  0.66995397    -0.02100
C2584       C  0.15189981  0.64974212  0.70138852     0.07600
C2585       C  0.14184909  0.67941690  0.70711926    -0.02200
C2586       C  0.15279743  0.70406441  0.68832478    -0.02200
C2587       C  0.16997492  0.69874219  0.66017714     0.07800
C2588       C  0.16930284  0.66927920  0.64806875    -0.02400
Br2589     Br  0.16422095  0.66217441  0.60128266    -0.00900
Br2590     Br  0.18345156  0.60922426  0.65529774    -0.01000
Br2591     Br  0.14188026  0.74436990  0.69913446    -0.00900
Br2592     Br  0.11046042  0.68607238  0.73643409    -0.00900
C2593       C  0.15319632  0.68813556  0.83079570    -0.02100
C2594       C  0.17921510  0.70299417  0.82489644     0.07600
C2595       C  0.19496235  0.69333838  0.79612393    -0.02200
C2596       C  0.18418832  0.67236748  0.77345130    -0.02200
C2597       C  0.15882731  0.65718871  0.78014595     0.07800
C2598       C  0.14315676  0.66608033  0.80852691    -0.02400
Br2599     Br  0.10712751  0.64812228  0.81743211    -0.00900
Br2600     Br  0.13241678  0.69295000  0.87164904    -0.01000
Br2601     Br  0.20735911  0.66161390  0.73568817    -0.00900
Br2602     Br  0.23420940  0.70312906  0.78856921    -0.00900
C2603       C  0.21347219  0.91748148  0.56336672    -0.02100
C2604       C  0.19743901  0.93069107  0.53781717     0.07600
C2605       C  0.19797864  0.96232149  0.53469835    -0.02200
C2606       C  0.21705829  0.97966308  0.55296756    -0.02200
C2607       C  0.23463473  0.96590421  0.57664868     0.07800
C2608       C  0.23185030  0.93481401  0.58248160    -0.02400
Br2609     Br  0.25384161  0.91484248  0.61572327    -0.00900
Br2610     Br  0.21162993  0.87533817  0.57253734    -0.01000
Br2611     Br  0.21805059  0.52198957  0.54518530    -0.00900
Br2612     Br  0.16945045  0.98283207  0.51030159    -0.00900
C2613       C  0.19402940  0.94549849  0.93422501    -0.02100
C2614       C  0.20306505  0.92659985  0.96035879     0.07600
C2615       C  0.23235789  0.92568853  0.96619241    -0.02200
C2616       C  0.25114453  0.94457924  0.94837985    -0.02200
C2617       C  0.24196768  0.96147920  0.92054895     0.07800
C2618       C  0.21314467  0.96046857  0.91301785    -0.02400
Br2619     Br  0.19787770  0.98146968  0.87543811    -0.00900
Br2620     Br  0.15572020  0.95710948  0.93040193    -0.01000
Br2621     Br  0.28935336  0.94706833  0.96387600    -0.00900
Br2622     Br  0.24845794  0.89805283  0.99714238    -0.00900
C2623       C  0.06206800  0.95711007  0.52991406    -0.02100
C2624       C  0.05918345  0.95212510  0.56417104     0.07600
C2625       C  0.08240141  0.94104806  0.58169749    -0.02200
C2626       C  0.10724213  0.93324457  0.56462065    -0.02200
C2627       C  0.10738311  0.93059995  0.52948549     0.07800
C2628       C  0.08688965  0.94851301  0.51325922    -0.02400
Br2629     Br  0.09841602  0.97299910  0.97411490    -0.00900
Br2630     Br  0.03227061  0.97628749  0.50553084    -0.01000
Br2631     Br  0.14114257  0.94296012  0.58804409    -0.00900
Br2632     Br  0.08201986  0.94072481  0.62963294    -0.00900
C2633       C  0.15069060  0.82213726  0.93834448    -0.02100
C2634       C  0.16692395  0.83190264  0.96517865     0.07600
C2635       C  0.19321414  0.81855863  0.96955598    -0.02200
C2636       C  0.20277587  0.79509392  0.94897436    -0.02200
C2637       C  0.18685806  0.78533201  0.92118520     0.07800
C2638       C  0.16145740  0.80135779  0.91511192    -0.02400
Br2639     Br  0.14358625  0.80136059  0.87234174    -0.00900
Br2640     Br  0.11201104  0.83398835  0.93543739    -0.01000
Br2641     Br  0.23876613  0.77941878  0.96061109    -0.00900
Br2642     Br  0.21686488  0.83282543  0.00398163    -0.00900
C2643       C  0.15874145  0.80366664  0.53257580    -0.02100
C2644       C  0.15545601  0.83398311  0.54231297     0.07600
C2645       C  0.15471247  0.83807342  0.57705591    -0.02200
C2646       C  0.16913948  0.81796187  0.59818901    -0.02200
C2647       C  0.18044523  0.79096301  0.58585227     0.07800
C2648       C  0.17317225  0.78301051  0.55319916    -0.02400
Br2649     Br  0.18047589  0.74300197  0.53744883    -0.00900
Br2650     Br  0.12926827  0.78851586  0.00645700    -0.01000
Br2651     Br  0.17186673  0.82705570  0.64437054    -0.00900
Br2652     Br  0.12537770  0.86194215  0.59675906    -0.00900
C2653       C  0.08209101  0.54318709  0.84276199    -0.02100
C2654       C  0.05430503  0.54637668  0.83234031     0.07600
C2655       C  0.04804134  0.56755081  0.80754959    -0.02200
C2656       C  0.06994653  0.58283968  0.79075505    -0.02200
C2657       C  0.09839500  0.57494524  0.79643293     0.07800
C2658       C  0.10415634  0.55636403  0.82436998    -0.02400
Br2659     Br  0.14141363  0.54456812  0.83624812    -0.00900
Br2660     Br  0.08961298  0.52082628  0.88296862    -0.01000
Br2661     Br  0.06038547  0.61573250  0.76176043    -0.00900
Br2662     Br  0.00957644  0.57450596  0.79547718    -0.00900
C2663       C  0.08093638  0.92548538  0.90502432    -0.02100
C2664       C  0.05492742  0.92700603  0.92180105     0.07600
C2665       C  0.05202739  0.91185678  0.95243165    -0.02200
C2666       C  0.07590077  0.89990439  0.96838168    -0.02200
C2667       C  0.10317823  0.90477440  0.95487801     0.07800
C2668       C  0.10421946  0.91186518  0.92023274    -0.02400
Br2669     Br  0.13290444  0.89778454  0.88976750    -0.00900
Br2670     Br  0.08589331  0.94392702  0.86178128    -0.01000
Br2671     Br  0.07284869  0.87079811  0.50510730    -0.00900
Br2672     Br  0.01535688  0.90700884  0.97221765    -0.00900
C2673       C  0.90567104  0.54867351  0.59377801    -0.02100
C2674       C  0.93341745  0.55226678  0.58240285     0.07600
C2675       C  0.93929079  0.57348060  0.55740474    -0.02200
C2676       C  0.91719391  0.58896605  0.54179490    -0.02200
C2677       C  0.88888389  0.58106402  0.54860199     0.07800
C2678       C  0.88343627  0.56213499  0.57645139    -0.02400
Br2679     Br  0.84623919  0.55061385  0.58972343    -0.00900
Br2680     Br  0.89787729  0.52370553  0.63224392    -0.01000
Br2681     Br  0.92863556  0.62207708  0.01121438    -0.00900
Br2682     Br  0.97775489  0.58207381  0.54572182    -0.00900
C2683       C  0.90153766  0.53875363  0.98390708    -0.02100
C2684       C  0.89329546  0.56805838  0.97385897     0.07600
C2685       C  0.90708856  0.58112361  0.94598392    -0.02200
C2686       C  0.92827771  0.56526948  0.92868563    -0.02200
C2687       C  0.93621602  0.53600818  0.93878671     0.07800
C2688       C  0.92348973  0.52348186  0.96743095    -0.02400
Br2689     Br  0.93497367  0.48452621  0.98392942    -0.00900
Br2690     Br  0.87549925  0.51658259  0.51457270    -0.01000
Br2691     Br  0.94771576  0.58491417  0.89223297    -0.00900
Br2692     Br  0.89806330  0.62135522  0.93140119    -0.00900
C2693       C  0.80441551  0.54751584  0.94116185    -0.02100
C2694       C  0.79536676  0.56597529  0.96753413     0.07600
C2695       C  0.76628910  0.57379709  0.96894796    -0.02200
C2696       C  0.74779045  0.56472629  0.94363551    -0.02200
C2697       C  0.75771236  0.54797877  0.91649535     0.07800
C2698       C  0.78642641  0.54056828  0.91513455    -0.02400
Br2699     Br  0.80344392  0.52528118  0.87557581    -0.00900
Br2700     Br  0.84132674  0.52950763  0.94028338    -0.01000
Br2701     Br  0.70864069  0.57571174  0.94605926    -0.00900
Br2702     Br  0.74696874  0.59536401  0.50427187    -0.00900
C2703       C  0.78255853  0.58021873  0.57501314    -0.02100
C2704       C  0.79335377  0.56690824  0.54545772     0.07600
C2705       C  0.78368747  0.53740429  0.53820363    -0.02200
C2706       C  0.76030126  0.52518827  0.55498790    -0.02200
C2707       C  0.75103289  0.53785583  0.58488354     0.07800
C2708       C  0.76440768  0.56407490  0.59616860    -0.02400
Br2709     Br  0.76030948  0.57686468  0.64192613    -0.00900
Br2710     Br  0.78884850  0.62107178  0.58753956    -0.01000
Br2711     Br  0.74042460  0.49231274  0.53521317    -0.00900
Br2712     Br  0.80882534  0.50986353  0.01393056    -0.00900
C2713       C  0.87707820  0.91306794  0.66206870    -0.02100
C2714       C  0.87993762  0.90205179  0.69491485     0.07600
C2715       C  0.90740041  0.89472263  0.70392840    -0.02200
C2716       C  0.93000299  0.91122633  0.69086475    -0.02200
C2717       C  0.92576400  0.93029608  0.66341828     0.07800
C2718       C  0.89964307  0.92890077  0.64715988    -0.02400
Br2719     Br  0.89393199  0.94884850  0.60514318    -0.00900
Br2720     Br  0.84784830  0.89918075  0.63321376    -0.01000
Br2721     Br  0.96681030  0.90473539  0.70862158    -0.00900
Br2722     Br  0.91427195  0.85355489  0.71465137    -0.00900
C2723       C  0.92267892  0.91006150  0.81526868    -0.02100
C2724       C  0.92890488  0.94105861  0.81351249     0.07600
C2725       C  0.91523725  0.95878234  0.78954018    -0.02200
C2726       C  0.89618206  0.94573150  0.76746788    -0.02200
C2727       C  0.88765367  0.91543884  0.77116303     0.07800
C2728       C  0.90250178  0.89731436  0.79402531    -0.02400
Br2729     Br  0.89880848  0.85428381  0.79317606    -0.00900
Br2730     Br  0.94218539  0.88460171  0.84627366    -0.01000
Br2731     Br  0.88526331  0.96932225  0.73006326    -0.00900
Br2732     Br  0.93440101  0.49646964  0.77621586    -0.00900
C2733       C  0.79791931  0.97469508  0.78536707    -0.02100
C2734       C  0.79826553  0.94315664  0.78997695     0.07600
C2735       C  0.78631880  0.93192343  0.82000693    -0.02200
C2736       C  0.77449797  0.95124113  0.84357571    -0.02200
C2737       C  0.76723869  0.98066052  0.83423354     0.07800
C2738       C  0.78149750  0.99313901  0.80621545    -0.02400
Br2739     Br  0.78169594  0.53590033  0.79369862    -0.00900
Br2740     Br  0.82132759  0.99392591  0.75287221    -0.01000
Br2741     Br  0.77284991  0.93717699  0.88892968    -0.00900
Br2742     Br  0.77971721  0.89029031  0.82839486    -0.00900
C2743       C  0.75674575  0.94022375  0.72097483    -0.02100
C2744       C  0.78600249  0.94112187  0.71355973     0.07600
C2745       C  0.79470004  0.96013953  0.68713390    -0.02200
C2746       C  0.77540137  0.97798785  0.66956831    -0.02200
C2747       C  0.74633629  0.97520471  0.67525277     0.07800
C2748       C  0.73719562  0.95551933  0.70068974    -0.02400
Br2749     Br  0.69769717  0.94683365  0.70560366    -0.00900
Br2750     Br  0.74199992  0.91679887  0.75719165    -0.01000
Br2751     Br  0.79153555  0.50168272  0.63264693    -0.00900
Br2752     Br  0.83342012  0.96463658  0.67560769    -0.00900
C2753       C  0.74250514  0.70150692  0.79346006    -0.02100
C2754       C  0.73364468  0.71082586  0.82559122     0.07600
C2755       C  0.70984539  0.69656228  0.83930300    -0.02200
C2756       C  0.69449197  0.67664638  0.81996402    -0.02200
C2757       C  0.69676379  0.67803791  0.78495646     0.07800
C2758       C  0.72400445  0.68489402  0.77310411    -0.02400
Br2759     Br  0.73813369  0.66526778  0.73396379    -0.00900
Br2760     Br  0.78065255  0.70808968  0.77894599    -0.01000
Br2761     Br  0.68934404  0.63828624  0.84143881    -0.00900
Br2762     Br  0.70223788  0.69711562  0.88658539    -0.00900
C2763       C  0.70308625  0.78288628  0.90674839    -0.02100
C2764       C  0.73195114  0.78086589  0.91420706     0.07600
C2765       C  0.74282726  0.80186741  0.93673491    -0.02200
C2766       C  0.72469628  0.82092791  0.95491082    -0.02200
C2767       C  0.69519572  0.81723036  0.95339988     0.07800
C2768       C  0.68474818  0.79919791  0.92755119    -0.02400
Br2769     Br  0.64545005  0.79643780  0.91901462    -0.00900
Br2770     Br  0.68814798  0.76762125  0.86594180    -0.01000
Br2771     Br  0.74031436  0.85422652  0.97887334    -0.00900
Br2772     Br  0.78271958  0.80731024  0.93959338    -0.00900
C2773       C  0.78219290  0.79991384  0.80392082    -0.02100
C2774       C  0.79785746  0.79091616  0.83207985     0.07600
C2775       C  0.82078563  0.80948569  0.84053334    -0.02200
C2776       C  0.82758352  0.83567936  0.82161794    -0.02200
C2777       C  0.81387010  0.84219529  0.79072773     0.07800
C2778       C  0.78909939  0.82570174  0.78512164    -0.02400
Br2779     Br  0.75945976  0.84294491  0.75884202    -0.00900
Br2780     Br  0.75065015  0.77789286  0.78845614    -0.01000
Br2781     Br  0.84915706  0.86479413  0.84599350    -0.00900
Br2782     Br  0.84213259  0.80156422  0.88017674    -0.00900
C2783       C  0.84068803  0.68321001  0.95577892    -0.02100
C2784       C  0.83382829  0.65235924  0.95288395     0.07600
C2785       C  0.81607934  0.64496767  0.92617954    -0.02200
C2786       C  0.79828136  0.66643679  0.91289837    -0.02200
C2787       C  0.80535406  0.69742116  0.91364079     0.07800
C2788       C  0.82693388  0.70547550  0.93608717    -0.02400
Br2789     Br  0.83535433  0.74691951  0.94408177    -0.00900
Br2790     Br  0.87189681  0.69453557  0.98280795    -0.01000
Br2791     Br  0.76053657  0.65109405  0.90728632    -0.00900
Br2792     Br  0.81886206  0.61001340  0.89871069    -0.00900
C2793       C  0.73455526  0.79467521  0.54251051    -0.02100
C2794       C  0.72883163  0.78782549  0.57614504     0.07600
C2795       C  0.70106700  0.79410717  0.58771826    -0.02200
C2796       C  0.68087238  0.80635653  0.56564077    -0.02200
C2797       C  0.68781714  0.81182219  0.53174958     0.07800
C2798       C  0.71242947  0.79795335  0.52057784    -0.02400
Br2799     Br  0.70930853  0.76067788  0.99842705    -0.00900
Br2800     Br  0.77190099  0.79985172  0.52476989    -0.01000
Br2801     Br  0.64249471  0.80736494  0.58051908    -0.00900
Br2802     Br  0.68923945  0.78781633  0.63308189    -0.00900
C2803       C  0.69840894  0.71102244  0.65074978    -0.02100
C2804       C  0.72221037  0.72503311  0.66382762     0.07600
C2805       C  0.72075447  0.73387944  0.69709238    -0.02200
C2806       C  0.69935301  0.72254233  0.71832498    -0.02200
C2807       C  0.68140216  0.69970443  0.70679085     0.07800
C2808       C  0.67677004  0.70111180  0.67210050    -0.02400
Br2809     Br  0.63942323  0.70332234  0.65426783    -0.00900
Br2810     Br  0.69260357  0.71021205  0.60380842    -0.01000
Br2811     Br  0.68921416  0.74504475  0.75702539    -0.00900
Br2812     Br  0.74718042  0.76240706  0.71232792    -0.00900
C2813       C  0.78781281  0.82368743  0.65741242    -0.02100
C2814       C  0.79724518  0.79411369  0.66161559     0.07600
C2815       C  0.81458137  0.78783979  0.68915805    -0.02200
C2816       C  0.82265797  0.81116671  0.71113183    -0.02200
C2817       C  0.80989773  0.83999058  0.70926534     0.07800
C2818       C  0.79114809  0.84492571  0.68254841    -0.02400
Br2819     Br  0.76590105  0.87840727  0.68093396    -0.00900
Br2820     Br  0.77230137  0.83660645  0.61571690    -0.01000
Br2821     Br  0.85262475  0.80346142  0.74154236    -0.00900
Br2822     Br  0.82617942  0.74720391  0.69817446    -0.00900
C2823       C  0.82630600  0.69211637  0.58420845    -0.02100
C2824       C  0.79864059  0.70303813  0.57918271     0.07600
C2825       C  0.78351161  0.68995662  0.55272799    -0.02200
C2826       C  0.79684560  0.67223832  0.52864311    -0.02200
C2827       C  0.82452306  0.66196217  0.53291973     0.07800
C2828       C  0.83920815  0.67260262  0.56083167    -0.02400
Br2829     Br  0.87743202  0.66017181  0.56748160    -0.00900
Br2830     Br  0.84415147  0.69582331  0.62659534    -0.01000
Br2831     Br  0.77488243  0.66107869  0.49146670    -0.00900
Br2832     Br  0.74296070  0.69047597  0.55168622    -0.00900
loop_ 
_geom_bond_atom_site_label_1 
_geom_bond_atom_site_label_2 
_geom_bond_distance 
_geom_bond_site_symmetry_2 
_ccdc_geom_bond_type 
C1            C2   1.536       .  S
C1            C7   1.543       .  S
C1            C5   1.555       .  S
C1          C700   1.564       .  S
C2            H9   1.081       .  S
C2            C3   1.363       .  D
C3            C4   1.547       .  S
C3          C670   1.522       .  S
C4            C8   1.544       .  S
C4            C6   1.553       .  S
C4           H10   1.097       .  S
C5           H11   1.080       .  S
C5            C6   1.373       .  D
C6          C690   1.513       .  S
C7           H12   1.086       .  S
C7            C8   1.369       .  D
C8          C680   1.501       .  S
C13          C14   1.536       .  S
C13          C19   1.543       .  S
C13          C17   1.550       .  S
C13         C663   1.557       .  S
C14          H21   1.083       .  S
C14          C15   1.345       .  D
C15          C16   1.559       .  S
C15         C630   1.504       .  S
C16          C20   1.543       .  S
C16          C18   1.560       .  S
C16          H22   1.105       .  S
C17          H23   1.083       .  S
C17          C18   1.384       .  D
C18         C650   1.514       .  S
C19          H24   1.086       .  S
C19          C20   1.369       .  D
C20         C640   1.515       .  S
C25          C31   1.551       .  S
C25          C30   1.548       .  S
C25          C29   1.566       .  S
C25          H26   1.086       .  S
C27          C33   1.566       .  S
C27          C32   1.542       .  S
C27          C34   1.556       .  S
C27          H28   1.084       .  S
C29          C32   1.375       .  D
C29         C620   1.527       .  S
C30          C33   1.416       .  D
C30         C693   1.539       .  S
C31          C34   1.391       .  D
C31         C590   1.537       .  S
C32         C610   1.522       .  S
C33         C653   1.547       .  S
C34         C603   1.520       .  S
C35          C41   1.541       .  S
C35          C40   1.561       .  S
C35          C39   1.562       .  S
C35          H36   1.099       .  S
C37          C43   1.546       .  S
C37          C42   1.560       .  S
C37          C44   1.546       .  S
C37          H38   1.091       .  S
C39         C750   1.385   1_554  D
C39         C580   1.526       .  S
C40         C751   1.398   1_554  D
C40         C703   1.520       .  S
C41         C752   1.377   1_554  D
C41         C553   1.515       .  S
C42         C747   1.389       .  D
C42         C570   1.527       .  S
C43         C748   1.398       .  D
C43         C660   1.532       .  S
C44         C749   1.375       .  D
C44         C560   1.516       .  S
O45          C48   1.263       .  A
O45       Cd1466   2.501   1_445  S
C46          O51   1.265       .  A
C46        O1471   1.265       .  A
C46         C563   1.490       .  S
O47          C53   1.265       .  A
O47         Cd50   2.470       .  S
C48        O1472   1.264       .  A
C48         C530   1.487       .  S
C49          O54   1.264       .  A
C49        O1468   1.263       .  A
C49         C540   1.488       .  S
Cd50         O56   2.502   1_655  S
Cd50         O55   2.476       .  S
Cd50         O54   2.477   1_655  S
Cd50       O1461   2.502   1_655  S
Cd50       O1473   2.521       .  S
Cd50       O1467   2.477       .  S
Cd50       O1468   2.505   1_655  S
O51       Cd1466   2.482   1_545  S
O52        C1465   1.264       .  A
O52       Cd1466   2.514   1_455  S
C53        O1473   1.268       .  A
C53         C600   1.495       .  S
O55        C1462   1.265       .  A
O56        C1464   1.264       .  A
O57        C1469   1.268       .  A
O57       Cd1466   2.518       .  S
C58          C64   1.565       .  S
C58          C63   1.578       .  S
C58          C62   1.543       .  S
C58          H59   1.078       .  S
C60          C66   1.538       .  S
C60          C65   1.564       .  S
C60          C67   1.563       .  S
C60          H61   1.091       .  S
C62         C773   1.379   1_554  D
C62         C480   1.525       .  S
C63         C774   1.395   1_554  D
C63         C520   1.556       .  S
C64         C775   1.404   1_554  D
C64         C503   1.549       .  S
C65         C770   1.377       .  D
C65         C490   1.526       .  S
C66         C771   1.393       .  D
C66         C510   1.516       .  S
C67         C772   1.403       .  D
C67         C543   1.536       .  S
C68          C74   1.550       .  S
C68          C73   1.553       .  S
C68          C72   1.558       .  S
C68          H69   1.098       .  S
C70          C76   1.563       .  S
C70          C75   1.566       .  S
C70          C77   1.546       .  S
C70          H71   1.104       .  S
C72          C75   1.387       .  D
C72         C440   1.527       .  S
C73          C76   1.396       .  D
C73         C460   1.537       .  S
C74          C77   1.378       .  D
C74         C450   1.509       .  S
C75         C433   1.525       .  S
C76         C473   1.527       .  S
C77         C533   1.525       .  S
C78          C79   1.528       .  S
C78          C84   1.539       .  S
C78          C82   1.566       .  S
C78         C470   1.576       .  S
C79          H86   1.084       .  S
C79          C80   1.357       .  D
C80          C81   1.552       .  S
C80         C413   1.501       .  S
C81          C85   1.519       .  S
C81          C83   1.557       .  S
C81          H87   1.093       .  S
C82          H88   1.075       .  S
C82          C83   1.398       .  D
C83         C513   1.541       .  S
C84          H89   1.087       .  S
C84          C85   1.352       .  D
C85         C420   1.479       .  S
C90          C91   1.547       .  S
C90          C96   1.540       .  S
C90          C94   1.530       .  S
C90         C463   1.558       .  S
C91          H98   1.086       .  S
C91          C92   1.376       .  D
C92          C93   1.559       .  S
C92         C393   1.524       .  S
C93          C97   1.560       .  S
C93          C95   1.561       .  S
C93          H99   1.105       .  S
C94         H100   1.086       .  S
C94          C95   1.368       .  D
C95         C523   1.505       .  S
C96         H101   1.077       .  S
C96          C97   1.364       .  D
C97         C400   1.524       .  S
O102        C105   1.263       .  A
O102      Cd1523   2.437   1_545  S
C103        O108   1.263       .  A
C103       O1528   1.264   1_545  A
C103        C453   1.480       .  S
O104        C110   1.263       .  A
O104       Cd107   2.470       .  S
C105       O1529   1.267       .  A
C105        C550   1.471       .  S
C106        O111   1.266       .  A
C106       O1525   1.268       .  A
C106        C500   1.485       .  S
Cd107       O113   2.475       .  S
Cd107       O112   2.468   1_655  S
Cd107       O111   2.473   1_655  S
Cd107      O1518   2.445       .  S
Cd107      O1530   2.471       .  S
Cd107      O1524   2.449   1_655  S
Cd107      O1525   2.466   1_655  S
O108      Cd1523   2.464   1_445  S
O109       C1522   1.267       .  A
O109      Cd1523   2.470   1_455  S
C110       O1530   1.265       .  A
C110        C593   1.483       .  S
O112       C1519   1.264       .  A
O113       C1521   1.268       .  A
O114       C1526   1.265       .  A
O114      Cd1523   2.491       .  S
C115        C121   1.536       .  S
C115        C120   1.570       .  S
C115        C119   1.558       .  S
C115        H116   1.095       .  S
C117        C123   1.564       .  S
C117        C122   1.540       .  S
C117        C124   1.570       .  S
C117        H118   1.056       .  S
C119        C122   1.377       .  D
C119        C423   1.504       .  S
C120        C123   1.420       .  D
C120        C370   1.561       .  S
C121        C124   1.379       .  D
C121        C363   1.519       .  S
C122        C390   1.541       .  S
C123        C380   1.549       .  S
C124        C353   1.521       .  S
C125        C131   1.542       .  S
C125        C130   1.564       .  S
C125        C129   1.538       .  S
C125        H126   1.084       .  S
C127        C133   1.562       .  S
C127        C132   1.578       .  S
C127        C134   1.546       .  S
C127        H128   1.101       .  S
C129        C840   1.419       .  D
C129        C410   1.543       .  S
C130        C841   1.387       .  D
C130        C330   1.512       .  S
C131        C842   1.378       .  D
C131        C313   1.529       .  S
C132        C837   1.424   1_554  D
C132        C403   1.552       .  S
C133        C838   1.385   1_554  D
C133        C340   1.537       .  S
C134        C839   1.374   1_554  D
C134        C320   1.508       .  S
C135        C136   1.526       .  S
C135        C141   1.546       .  S
C135        C139   1.560       .  S
C135        C333   1.570       .  S
C136        H143   1.085       .  S
C136       C1553   1.353   1_545  D
C137        C138   1.551       .  S
C137       C1552   1.352       .  D
C137        C493   1.511       .  S
C138        C140   1.552       .  S
C138       C1558   1.569       .  S
C138        H144   1.098       .  S
C139        H145   1.080       .  S
C139       C1556   1.379   1_545  D
C140       C1555   1.381       .  D
C140        C373   1.515       .  S
C141        H146   1.086       .  S
C141        C142   1.376       .  D
C142       C1554   1.564   1_545  S
C142        C430   1.530       .  S
C147        C148   1.547       .  S
C147        C153   1.546       .  S
C147        C151   1.529   1_545  S
C147        C343   1.545       .  S
C148        H155   1.086       .  S
C148        C149   1.376       .  D
C149       C1566   1.546   1_545  S
C149        C443   1.507       .  S
C150        C154   1.543       .  S
C150        C152   1.552       .  S
C150       C1565   1.547       .  S
C150        H156   1.108       .  S
C151        H157   1.086       .  S
C151       C1568   1.369       .  D
C152       C1567   1.371       .  D
C152        C383   1.502       .  S
C153        H158   1.080       .  S
C153       C1570   1.356   1_545  D
C154       C1569   1.361       .  D
C154        C483   1.512       .  S
O159        C162   1.267       .  A
O159       Cd164   2.470       .  S
C160        O169   1.264       .  A
C160        O165   1.264       .  A
C160        C290   1.473       .  S
O161        C167   1.266       .  A
O161       Cd164   2.469       .  S
C162        O170   1.264       .  A
C162        C310   1.482       .  S
C163        O168   1.263       .  A
C163        O166   1.266       .  A
C163        C300   1.492       .  S
Cd164       O171   2.448       .  S
Cd164       O170   2.468       .  S
Cd164       O169   2.474       .  S
Cd164       O165   2.454       .  S
Cd164       O168   2.469       .  S
Cd164       O166   2.508       .  S
C167        O171   1.266       .  A
C167        C360   1.473       .  S
C172        C173   1.540       .  S
C172        C178   1.554       .  S
C172        C176   1.533       .  S
C172        C270   1.553       .  S
C173        H180   1.070       .  S
C173       C1590   1.358   1_545  D
C174        C175   1.551       .  S
C174       C1589   1.357       .  D
C174        C613   1.518       .  S
C175        C177   1.555       .  S
C175       C1595   1.536       .  S
C175        H181   1.101       .  S
C176       H1598   1.086       .  S
C176       C1593   1.364   1_545  D
C177       C1592   1.362       .  D
C177        C283   1.488       .  S
C178        H183   1.086       .  S
C178        C179   1.376       .  D
C179       C1591   1.536   1_545  S
C179        C573   1.505       .  S
H182       C1592   1.086       .  S
C184        C190   1.550       .  S
C184        C189   1.539       .  S
C184        C188   1.552       .  S
C184        H185   1.086       .  S
C186        C192   1.563       .  S
C186        C191   1.573       .  S
C186        C193   1.527       .  S
C186        H187   1.093       .  S
C188        C191   1.409       .  D
C188        C633   1.545       .  S
C189        C192   1.388       .  D
C189        C273   1.511       .  S
C190        C193   1.370       .  D
C190        C293   1.510       .  S
C191        C683   1.546       .  S
C192        C263   1.532       .  S
C193        C250   1.502       .  S
C194        C195   1.540       .  S
C194        C200   1.545       .  S
C194        C198   1.542   1_545  S
C194        C260   1.563       .  S
C195        H202   1.077       .  S
C195        C196   1.350       .  D
C196       C1613   1.536   1_545  S
C196        C583   1.494       .  S
C197        C201   1.554       .  S
C197        C199   1.559       .  S
C197       C1612   1.540       .  S
C197        H203   1.106       .  S
C198       H1620   1.085       .  S
C198       C1615   1.383       .  D
C199       C1614   1.383       .  D
C199        C243   1.523       .  S
C200        H205   1.083       .  S
C200       C1617   1.373   1_545  D
C201       C1616   1.373       .  D
C201        C623   1.513       .  S
H204       C1614   1.085       .  S
C206        C212   1.560       .  S
C206        C211   1.535       .  S
C206        C210   1.558       .  S
C206        H207   1.082       .  S
C208        C214   1.570       .  S
C208        C213   1.558       .  S
C208        C215   1.551       .  S
C208        H209   1.103       .  S
C210        C921   1.391       .  D
C210        C643   1.523       .  S
C211        C922   1.405       .  D
C211        C280   1.529       .  S
C212        C923   1.393       .  D
C212        C303   1.540       .  S
C213        C918   1.394   1_554  D
C213        C673   1.540       .  S
C214        C919   1.404   1_554  D
C214        C240   1.540       .  S
C215        C920   1.394   1_554  D
C215        C230   1.525       .  S
O216        C219   1.263       .  A
O216       Cd221   2.479       .  S
C217        O226   1.267       .  A
C217        O222   1.267       .  A
C217        C253   1.481       .  S
O218        C224   1.264       .  A
O218       Cd221   2.493       .  S
C219        O227   1.265       .  A
C219        C323   1.473       .  S
C220        O225   1.264       .  A
C220        O223   1.265       .  A
C220        C350   1.485       .  S
Cd221       O228   2.508       .  S
Cd221       O227   2.455       .  S
Cd221       O226   2.449       .  S
Cd221       O222   2.471       .  S
Cd221       O225   2.502       .  S
Cd221       O223   2.474       .  S
C224        O228   1.265       .  A
C224        C233   1.502       .  S
C229        C230   1.419       .  A
C229        C234   1.415       .  A
C229       Br944   1.921       .  S
C230        C231   1.419       .  A
C231        C232   1.415       .  A
C231       Br238   1.920   1_554  S
C232        C233   1.415       .  A
C232       Br237   1.937       .  S
C233        C234   1.415       .  A
C234       Br235   1.934       .  S
Br236       C937   1.924       .  S
C239        C240   1.421       .  A
C239        C244   1.415       .  A
C239       Br954   1.912       .  S
C240        C241   1.424       .  A
C241        C242   1.423       .  A
C241       Br248   1.915       .  S
C242        C243   1.415       .  A
C242       Br247   1.931       .  S
C243        C244   1.416       .  A
C244      Br1661   1.935       .  S
Br245      C1660   1.934   1_545  S
Br246       C947   1.910       .  S
C249        C250   1.417       .  A
C249        C254   1.413       .  A
C249       Br256   1.930       .  S
C250        C251   1.413       .  A
C251        C252   1.405       .  A
C251       Br258   1.921       .  S
C252        C253   1.408       .  A
C252       Br257   1.937       .  S
C253        C254   1.411       .  A
C254       Br255   1.931       .  S
C259        C260   1.416       .  A
C259        C264   1.433       .  A
C259       Br266   1.922       .  S
C260        C261   1.404       .  A
C261        C262   1.391       .  A
C261       Br268   1.932       .  S
C262        C263   1.419       .  A
C262       Br267   1.915       .  S
C263        C264   1.431       .  A
C264       Br265   1.925       .  S
C269        C270   1.418       .  A
C269        C274   1.421       .  A
C269       Br276   1.927       .  S
C270        C271   1.411       .  A
C271        C272   1.391       .  A
C271       Br278   1.925       .  S
C272        C273   1.411       .  A
C272       Br277   1.919       .  S
C273        C274   1.425       .  A
C274       Br275   1.929       .  S
C279        C280   1.438       .  A
C279        C284   1.410       .  A
C279       Br286   1.910       .  S
C280        C281   1.408       .  A
C281        C282   1.408       .  A
C281       Br996   1.927       .  S
C282        C283   1.410       .  A
C282      Br1703   1.917       .  S
C283        C284   1.397       .  A
C284       Br285   1.939       .  S
Br287      C1698   1.916   1_545  S
Br288       C989   1.927       .  S
C289        C290   1.406       .  A
C289        C294   1.412       .  A
C289       Br296   1.928       .  S
C290        C291   1.401       .  A
C291        C292   1.403       .  A
C291       Br298   1.938       .  S
C292        C293   1.420       .  A
C292       Br297   1.910       .  S
C293        C294   1.418       .  A
C294       Br295   1.925       .  S
C299        C300   1.412       .  A
C299        C304   1.412       .  A
C299       Br306   1.928       .  S
C300        C301   1.415       .  A
C301        C302   1.412       .  A
C301       Br308   1.933       .  S
C302        C303   1.422       .  A
C302       Br307   1.933       .  S
C303        C304   1.415       .  A
C304      Br1013   1.926       .  S
Br305      C1012   1.925       .  S
C309        C310   1.402       .  A
C309        C314   1.409       .  A
C309       Br316   1.943       .  S
C310        C311   1.406       .  A
C311        C312   1.416       .  A
C311       Br318   1.934       .  S
C312        C313   1.425       .  A
C312       Br317   1.918       .  S
C313        C314   1.423       .  A
C314      Br1023   1.905       .  S
Br315      C1022   1.907   1_554  S
C319        C320   1.417       .  A
C319        C324   1.408       .  A
C319       Br326   1.927       .  S
C320        C321   1.419       .  A
C321        C322   1.408       .  A
C321       Br328   1.921       .  S
C322        C323   1.406       .  A
C322       Br327   1.935       .  S
C323        C324   1.405       .  A
C324       Br325   1.928       .  S
C329        C330   1.412       .  A
C329        C334   1.404       .  A
C329       Br336   1.945       .  S
C330        C331   1.414       .  A
C331        C332   1.429       .  A
C331       Br338   1.930       .  S
C332        C333   1.431       .  A
C332       Br337   1.927       .  S
C333        C334   1.427       .  A
C334       Br335   1.931       .  S
C339        C340   1.420       .  A
C339        C344   1.381       .  A
C339      Br1054   1.902       .  S
C340        C341   1.437       .  A
C341        C342   1.426       .  A
C341       Br348   1.923       .  S
C342        C343   1.414       .  A
C342       Br347   1.921       .  S
C343        C344   1.400       .  A
C344       Br345   1.920       .  S
Br346      C1047   1.902       .  S
C349        C350   1.406       .  A
C349        C354   1.409       .  A
C349       Br356   1.940       .  S
C350        C351   1.406       .  A
C351        C352   1.416       .  A
C351       Br358   1.930       .  S
C352        C353   1.423       .  A
C352       Br357   1.928       .  S
C353        C354   1.423       .  A
C354       Br355   1.917       .  S
C359        C360   1.404       .  A
C359        C364   1.411       .  A
C359       Br366   1.929       .  S
C360        C361   1.402       .  A
C361        C362   1.407       .  A
C361       Br368   1.939       .  S
C362        C363   1.425       .  A
C362       Br367   1.915       .  S
C363        C364   1.418       .  A
C364       Br365   1.918       .  S
C369        C370   1.423       .  A
C369        C374   1.435       .  A
C369       Br376   1.925       .  S
C370        C371   1.418       .  A
C371        C372   1.402       .  A
C371       Br378   1.929       .  S
C372        C373   1.402       .  A
C372       Br377   1.912       .  S
C373        C374   1.421       .  A
C374       Br375   1.924       .  S
C379        C380   1.445       .  A
C379        C384   1.416       .  A
C379       Br386   1.942       .  S
C380        C381   1.421       .  A
C381        C382   1.413       .  A
C381       Br388   1.917       .  S
C382        C383   1.407       .  A
C382       Br387   1.919       .  S
C383        C384   1.409       .  A
C384       Br385   1.949       .  S
C389        C390   1.421       .  A
C389        C394   1.416       .  A
C389       Br396   1.917       .  S
C390        C391   1.426       .  A
C391        C392   1.423       .  A
C391       Br398   1.930       .  S
C392        C393   1.417       .  A
C392       Br397   1.923       .  S
C393        C394   1.415       .  A
C394       Br395   1.929       .  S
C399        C400   1.410       .  A
C399        C404   1.420       .  A
C399       Br406   1.911       .  S
C400        C401   1.412       .  A
C401        C402   1.408       .  A
C401       Br408   1.943       .  S
C402        C403   1.427       .  A
C402       Br407   1.903       .  S
C403        C404   1.427       .  A
C404      Br1113   1.900       .  S
Br405      C1112   1.902       .  S
C409        C410   1.458       .  A
C409        C414   1.430       .  A
C409       Br416   1.940       .  S
C410        C411   1.391       .  A
C411        C412   1.395       .  A
C411      Br1126   1.932       .  S
C412        C413   1.396       .  A
C412       Br417   1.917       .  S
C413        C414   1.422       .  A
C414       Br415   1.940       .  S
Br418      C1119   1.929       .  S
C419        C420   1.395       .  A
C419        C424   1.395       .  A
C419       Br426   1.920       .  S
C420        C421   1.403       .  A
C421        C422   1.412       .  A
C421       Br428   1.926       .  S
C422        C423   1.424       .  A
C422       Br427   1.921       .  S
C423        C424   1.416       .  A
C424       Br425   1.914       .  S
C429        C430   1.408       .  A
C429        C434   1.389       .  A
C429       Br436   1.906       .  S
C430        C431   1.420       .  A
C431        C432   1.424       .  A
C431      Br1854   1.912   1_545  S
C432        C433   1.427       .  A
C432       Br437   1.923       .  S
C433        C434   1.412       .  A
C434       Br435   1.914       .  S
Br438      C1847   1.914       .  S
C439        C440   1.425       .  A
C439        C444   1.412       .  A
C439       Br446   1.923       .  S
C440        C441   1.424       .  A
C441        C442   1.415       .  A
C441       Br448   1.929       .  S
C442        C443   1.412       .  A
C442       Br447   1.924       .  S
C443        C444   1.410       .  A
C444       Br445   1.932       .  S
C449        C450   1.419       .  A
C449        C454   1.409       .  A
C449       Br456   1.931       .  S
C450        C451   1.421       .  A
C451        C452   1.409       .  A
C451       Br458   1.926       .  S
C452        C453   1.406       .  A
C452      Br1873   1.934   1_545  S
C453        C454   1.410       .  A
C454       Br455   1.936       .  S
Br457      C1868   1.936       .  S
C459        C460   1.432       .  A
C459        C464   1.400       .  A
C459       Br466   1.920       .  S
C460        C461   1.424       .  A
C461        C462   1.424       .  A
C461       Br468   1.925       .  S
C462        C463   1.416       .  A
C462       Br467   1.919       .  S
C463        C464   1.406       .  A
C464       Br465   1.938       .  S
C469        C470   1.425       .  A
C469        C474   1.424       .  A
C469       Br476   1.930       .  S
C470        C471   1.444       .  A
C471        C472   1.414       .  A
C471       Br478   1.943       .  S
C472        C473   1.411       .  A
C472       Br477   1.937       .  S
C473        C474   1.421       .  A
C474       Br475   1.929       .  S
C479        C480   1.418       .  A
C479        C484   1.412       .  A
C479       Br486   1.909       .  S
C480        C481   1.416       .  A
C481        C482   1.417       .  A
C481       Br488   1.920       .  S
C482        C483   1.419       .  A
C482      Br1903   1.933       .  S
C483        C484   1.410       .  A
C484       Br485   1.927       .  S
Br487      C1898   1.936   1_545  S
C489        C490   1.416       .  A
C489        C494   1.408       .  A
C489       Br496   1.908       .  S
C490        C491   1.419       .  A
C491        C492   1.415       .  A
C491       Br498   1.917       .  S
C492        C493   1.423       .  A
C492       Br497   1.941       .  S
C493        C494   1.412       .  A
C494       Br495   1.929       .  S
C499        C500   1.407       .  A
C499        C504   1.413       .  A
C499       Br506   1.934       .  S
C500        C501   1.410       .  A
C501        C502   1.409       .  A
C501       Br508   1.934       .  S
C502        C503   1.420       .  A
C502       Br507   1.933       .  S
C503        C504   1.425       .  A
C504      Br1213   1.916   1_554  S
Br505      C1212   1.917       .  S
C509        C510   1.411       .  A
C509        C514   1.414       .  A
C509       Br516   1.924       .  S
C510        C511   1.403       .  A
C511        C512   1.415       .  A
C511       Br518   1.916       .  S
C512        C513   1.435       .  A
C512       Br517   1.921       .  S
C513        C514   1.428       .  A
C514       Br515   1.937       .  S
C519        C520   1.419       .  A
C519        C524   1.419       .  A
C519      Br1234   1.920       .  S
C520        C521   1.419       .  A
C521        C522   1.415       .  A
C521       Br528   1.927       .  S
C522        C523   1.408       .  A
C522       Br527   1.919       .  S
C523        C524   1.414       .  A
C524       Br525   1.930       .  S
Br526      C1227   1.923       .  S
C529        C530   1.407       .  A
C529        C534   1.413       .  A
C529       Br536   1.935       .  S
C530        C531   1.406       .  A
C531        C532   1.412       .  A
C531       Br538   1.930       .  S
C532        C533   1.421       .  A
C532       Br537   1.926       .  S
C533        C534   1.426       .  A
C534       Br535   1.920       .  S
C539        C540   1.410       .  A
C539        C544   1.409       .  A
C539       Br546   1.938       .  S
C540        C541   1.410       .  A
C541        C542   1.415       .  A
C541       Br548   1.927       .  S
C542        C543   1.421       .  A
C542      Br1255   1.934       .  S
C543        C544   1.432       .  A
C544       Br545   1.938       .  S
Br547      C1250   1.931   1_554  S
C549        C550   1.404       .  A
C549        C554   1.407       .  A
C549       Br556   1.940       .  S
C550        C551   1.403       .  A
C551        C552   1.408       .  A
C551       Br558   1.928       .  S
C552        C553   1.419       .  A
C552      Br1265   1.926       .  S
C553        C554   1.426       .  A
C554       Br555   1.921       .  S
Br557      C1260   1.925       .  S
C559        C560   1.422       .  A
C559        C564   1.411       .  A
C559      Br1274   1.926       .  S
C560        C561   1.420       .  A
C561        C562   1.413       .  A
C561       Br568   1.932       .  S
C562        C563   1.412       .  A
C562       Br567   1.934       .  S
C563        C564   1.411       .  A
C564       Br565   1.938   1_545  S
Br566      C1267   1.927   1_554  S
C569        C570   1.417       .  A
C569        C574   1.404       .  A
C569       Br576   1.933       .  S
C570        C571   1.433       .  A
C571        C572   1.419       .  A
C571      Br1286   1.923       .  S
C572        C573   1.406       .  A
C572       Br577   1.930       .  S
C573        C574   1.410       .  A
C574       Br575   1.913       .  S
Br578      C1279   1.923   1_554  S
C579        C580   1.426       .  A
C579        C584   1.404       .  A
C579       Br586   1.914       .  S
C580        C581   1.424       .  A
C581        C582   1.405       .  A
C581      Br1296   1.917       .  S
C582        C583   1.404       .  A
C582       Br587   1.928   1_545  S
C583        C584   1.415       .  A
C584       Br585   1.949       .  S
Br588      C1289   1.918       .  S
C589        C590   1.423       .  A
C589        C594   1.415       .  A
C589       Br596   1.934       .  S
C590        C591   1.407       .  A
C591        C592   1.403       .  A
C591       Br598   1.909       .  S
C592        C593   1.407       .  A
C592       Br597   1.929       .  S
C593        C594   1.416       .  A
C594       Br595   1.933       .  S
C599        C600   1.411       .  A
C599        C604   1.417       .  A
C599       Br606   1.931       .  S
C600        C601   1.411       .  A
C601        C602   1.411       .  A
C601      Br2024   1.938       .  S
C602        C603   1.418       .  A
C602       Br607   1.915       .  S
C603        C604   1.420       .  A
C604       Br605   1.928       .  S
Br608      C2017   1.939       .  S
C609        C610   1.414       .  A
C609        C614   1.413       .  A
C609       Br616   1.915       .  S
C610        C611   1.421       .  A
C611        C612   1.405       .  A
C611       Br618   1.912       .  S
C612        C613   1.410       .  A
C612       Br617   1.931       .  S
C613        C614   1.428       .  A
C614      Br2031   1.947       .  S
Br615      C2030   1.949   1_545  S
C619        C620   1.424       .  A
C619        C624   1.421       .  A
C619       Br626   1.924       .  S
C620        C621   1.414       .  A
C621        C622   1.410       .  A
C621       Br628   1.915       .  S
C622        C623   1.411       .  A
C622      Br2043   1.918       .  S
C623        C624   1.415       .  A
C624       Br625   1.932       .  S
Br627      C2038   1.920   1_545  S
C629        C630   1.428       .  A
C629        C634   1.426       .  A
C629       Br636   1.933       .  S
C630        C631   1.410       .  A
C631        C632   1.403       .  A
C631       Br638   1.938       .  S
C632        C633   1.422       .  A
C632       Br637   1.933       .  S
C633        C634   1.418       .  A
C634       Br635   1.927       .  S
C639        C640   1.411       .  A
C639        C644   1.414       .  A
C639       Br646   1.929       .  S
C640        C641   1.414       .  A
C641        C642   1.417       .  A
C641       Br648   1.923       .  S
C642        C643   1.422       .  A
C642       Br647   1.930       .  S
C643        C644   1.420       .  A
C644       Br645   1.912       .  S
C649        C650   1.399       .  A
C649        C654   1.392       .  A
C649       Br656   1.888       .  S
C650        C651   1.411       .  A
C651        C652   1.426       .  A
C651       Br658   1.934       .  S
C652        C653   1.452       .  A
C652       Br657   1.944       .  S
C653        C654   1.407       .  A
C654       Br655   1.927       .  S
C659        C660   1.421       .  A
C659        C664   1.429       .  A
C659       Br666   1.927       .  S
C660        C661   1.420       .  A
C661        C662   1.385       .  A
C661       Br668   1.919       .  S
C662        C663   1.415       .  A
C662       Br667   1.947       .  S
C663        C664   1.425       .  A
C664       Br665   1.922       .  S
C669        C670   1.416       .  A
C669        C674   1.396       .  A
C669       Br676   1.928       .  S
C670        C671   1.425       .  A
C671        C672   1.422       .  A
C671       Br678   1.931       .  S
C672        C673   1.424       .  A
C672       Br677   1.922       .  S
C673        C674   1.401       .  A
C674      Br1383   1.923   1_554  S
Br675      C1382   1.923       .  S
C679        C680   1.406       .  A
C679        C684   1.409       .  A
C679       Br686   1.924       .  S
C680        C681   1.407       .  A
C681        C682   1.418       .  A
C681       Br688   1.907       .  S
C682        C683   1.420       .  A
C682       Br687   1.925       .  S
C683        C684   1.425       .  A
C684       Br685   1.934       .  S
C689        C690   1.400       .  A
C689        C694   1.402       .  A
C689       Br696   1.932       .  S
C690        C691   1.421       .  A
C691        C692   1.429       .  A
C691       Br698   1.926       .  S
C692        C693   1.423       .  A
C692       Br697   1.924       .  S
C693        C694   1.425       .  A
C694       Br695   1.912       .  S
C699        C700   1.423       .  A
C699        C704   1.424       .  A
C699       Br706   1.929       .  S
C700        C701   1.423       .  A
C701        C702   1.403       .  A
C701       Br708   1.937       .  S
C702        C703   1.410       .  A
C702       Br707   1.907   1_554  S
C703        C704   1.421       .  A
C704       Br705   1.929       .  S
C709        C710   1.534       .  S
C709        C715   1.543       .  S
C709        C713   1.551       .  S
C709       C1408   1.561       .  S
C710        H717   1.082       .  S
C710        C711   1.362       .  D
C711        C712   1.545       .  S
C711       C1378   1.517       .  S
C712        C716   1.544       .  S
C712        C714   1.553       .  S
C712        H718   1.099       .  S
C713        H719   1.081       .  S
C713        C714   1.372       .  D
C714       C1398   1.509       .  S
C715        H720   1.086       .  S
C715        C716   1.371       .  D
C716       C1388   1.501       .  S
C721        C722   1.535       .  S
C721        C727   1.541       .  S
C721        C725   1.553       .  S
C721       C1371   1.559       .  S
C722        H729   1.084       .  S
C722        C723   1.346       .  D
C723        C724   1.557       .  S
C723       C1338   1.498       .  S
C724        C728   1.543       .  S
C724        C726   1.557       .  S
C724        H730   1.105       .  S
C725        H731   1.083       .  S
C725        C726   1.388       .  D
C726       C1358   1.518       .  S
C727        H732   1.086       .  S
C727        C728   1.368       .  D
C728       C1348   1.515       .  S
C733        C739   1.550       .  S
C733        C738   1.544       .  S
C733        C737   1.567       .  S
C733        H734   1.089       .  S
C735        C741   1.571       .  S
C735        C740   1.543       .  S
C735        C742   1.558       .  S
C735        H736   1.085       .  S
C737        C740   1.377       .  D
C737       C1328   1.531       .  S
C738        C741   1.414       .  D
C738       C1401   1.533       .  S
C739        C742   1.386       .  D
C739       C1298   1.530       .  S
C740       C1318   1.521       .  S
C741       C1361   1.548       .  S
C742       C1311   1.522       .  S
C743        C749   1.540       .  S
C743        C748   1.560       .  S
C743        C747   1.564       .  S
C743        H744   1.099       .  S
C745        C751   1.547       .  S
C745        C750   1.558       .  S
C745        C752   1.546       .  S
C745        H746   1.095       .  S
C747       C1288   1.527       .  S
C748       C1411   1.517       .  S
C749       C1261   1.514       .  S
C750       C1278   1.518       .  S
C751       C1368   1.533       .  S
C752       C1268   1.517       .  S
O753        C756   1.263       .  A
O753      Cd2174   2.507   1_445  S
C754       O2179   1.267       .  A
C754        O759   1.266       .  A
C754       C1271   1.492       .  S
O755        C761   1.265       .  A
O755       Cd758   2.490       .  S
C756       O2180   1.263       .  A
C756       C1238   1.480       .  S
C757        O762   1.265       .  A
C757       O2176   1.266       .  A
C757       C1248   1.492       .  S
Cd758      O2169   2.520   1_655  S
Cd758      O2181   2.510       .  S
Cd758       O764   2.466   1_655  S
Cd758       O763   2.500       .  S
Cd758      O2175   2.470       .  S
Cd758       O762   2.501   1_655  S
Cd758      O2176   2.518   1_655  S
O759      Cd2174   2.467   1_545  S
O760       C2173   1.264       .  A
O760      Cd2174   2.511   1_455  S
C761       O2181   1.266       .  A
C761       C1308   1.497       .  S
O763       C2170   1.269       .  A
O764       C2172   1.262       .  A
O765       C2177   1.267       .  A
O765      Cd2174   2.522       .  S
C766        C772   1.560       .  S
C766        C771   1.577       .  S
C766        C770   1.540       .  S
C766        H767   1.080       .  S
C768        C774   1.544       .  S
C768        C773   1.569       .  S
C768        C775   1.565       .  S
C768        H769   1.092       .  S
C770       C1188   1.515       .  S
C771       C1228   1.548       .  S
C772       C1211   1.551       .  S
C773       C1198   1.527       .  S
C774       C1218   1.517       .  S
C775       C1251   1.545       .  S
C776        C782   1.548       .  S
C776        C781   1.555       .  S
C776        C780   1.555       .  S
C776        H777   1.099       .  S
C778        C784   1.563       .  S
C778        C783   1.567       .  S
C778        C785   1.548       .  S
C778        H779   1.104       .  S
C780        C783   1.385       .  D
C780       C1148   1.520       .  S
C781        C784   1.397       .  D
C781       C1168   1.536       .  S
C782        C785   1.377       .  D
C782       C1158   1.509       .  S
C783       C1141   1.529       .  S
C784       C1181   1.527       .  S
C785       C1241   1.523       .  S
C786        C787   1.527       .  S
C786        C792   1.537       .  S
C786        C790   1.569       .  S
C786       C1178   1.572       .  S
C787        H794   1.084       .  S
C787        C788   1.357       .  D
C788        C789   1.549       .  S
C788       C1121   1.499       .  S
C789        C793   1.516       .  S
C789        C791   1.555       .  S
C789        H795   1.088       .  S
C790        H796   1.075       .  S
C790        C791   1.402       .  D
C791       C1221   1.544       .  S
C792        H797   1.087       .  S
C792        C793   1.348       .  D
C793       C1128   1.474       .  S
C798        C799   1.546       .  S
C798        C804   1.539       .  S
C798        C802   1.529       .  S
C798       C1171   1.557       .  S
C799        H806   1.086       .  S
C799        C800   1.374       .  D
C800        C801   1.558       .  S
C800       C1101   1.524       .  S
C801        C805   1.562       .  S
C801        C803   1.563       .  S
C801        H807   1.103       .  S
C802        H808   1.086       .  S
C802        C803   1.367       .  D
C803       C1231   1.503       .  S
C804        H809   1.076       .  S
C804        C805   1.365       .  D
C805       C1108   1.528       .  S
O810        C813   1.263       .  A
O810      Cd2231   2.444   1_545  S
C811       O2236   1.265   1_545  A
C811        O816   1.263       .  A
C811       C1161   1.483       .  S
O812        C818   1.262       .  A
O812       Cd815   2.461       .  S
C813       O2237   1.268       .  A
C813       C1258   1.473       .  S
C814        O819   1.266       .  A
C814       O2233   1.268       .  A
C814       C1208   1.486       .  S
Cd815      O2226   2.452       .  S
Cd815      O2238   2.479       .  S
Cd815       O821   2.488       .  S
Cd815       O820   2.469   1_655  S
Cd815      O2232   2.461   1_655  S
Cd815       O819   2.472   1_655  S
Cd815      O2233   2.466   1_655  S
O816      Cd2231   2.452   1_445  S
O817       C2230   1.267       .  A
O817      Cd2231   2.463   1_455  S
C818       O2238   1.266       .  A
C818       C1301   1.481       .  S
O820       C2227   1.263       .  A
O821       C2229   1.268       .  A
O822       C2234   1.266       .  A
O822      Cd2231   2.486       .  S
C823        C829   1.538       .  S
C823        C828   1.572       .  S
C823        C827   1.557       .  S
C823        H824   1.092       .  S
C825        C831   1.558       .  S
C825        C830   1.539       .  S
C825        C832   1.570       .  S
C825        H826   1.047       .  S
C827        C830   1.376       .  D
C827       C1131   1.499       .  S
C828        C831   1.420       .  D
C828       C1078   1.563       .  S
C829        C832   1.381       .  D
C829       C1071   1.523       .  S
C830       C1098   1.543       .  S
C831       C1088   1.542       .  S
C832       C1061   1.520       .  S
C833        C839   1.536       .  S
C833        C838   1.562       .  S
C833        C837   1.539       .  S
C833        H834   1.078       .  S
C835        C841   1.562       .  S
C835        C840   1.579       .  S
C835        C842   1.545       .  S
C835        H836   1.100       .  S
C837       C1118   1.544       .  S
C838       C1038   1.523       .  S
C839       C1021   1.524       .  S
C840       C1111   1.548       .  S
C841       C1048   1.549       .  S
C842       C1028   1.507       .  S
C843        C844   1.530       .  S
C843        C849   1.549       .  S
C843        C847   1.558       .  S
C843       C1041   1.577       .  S
C844        H851   1.085       .  S
C844       C2261   1.357   1_545  D
C845        C846   1.549       .  S
C845       C2260   1.353       .  D
C845       C1201   1.509       .  S
C846       C2266   1.566       .  S
C846        C848   1.551       .  S
C846        H852   1.101       .  S
C847        H853   1.081       .  S
C847       C2264   1.380   1_545  D
C848       C2263   1.382       .  D
C848       C1081   1.517       .  S
C849        H854   1.086       .  S
C849        C850   1.378       .  D
C850       C2262   1.564   1_545  S
C850       C1138   1.534       .  S
C855        C856   1.545       .  S
C855        C861   1.551       .  S
C855        C859   1.532   1_545  S
C855       C1051   1.552       .  S
C856        H863   1.086       .  S
C856        C857   1.374       .  D
C857       C2274   1.544   1_545  S
C857       C1151   1.501       .  S
C858       C2273   1.546       .  S
C858        C862   1.537       .  S
C858        C860   1.548       .  S
C858        H864   1.107       .  S
C859        H865   1.086       .  S
C859       C2276   1.372       .  D
C860       C2275   1.369       .  D
C860       C1091   1.495       .  S
C861        H866   1.080       .  S
C861       C2278   1.360   1_545  D
C862       C2277   1.360       .  D
C862       C1191   1.503       .  S
O867        C870   1.266       .  A
O867       Cd872   2.463       .  S
C868        O877   1.264       .  A
C868        O873   1.263       .  A
C868        C998   1.470       .  S
O869        C875   1.266       .  A
O869       Cd872   2.477       .  S
C870        O878   1.264       .  A
C870       C1018   1.479       .  S
C871        O876   1.264       .  A
C871        O874   1.265       .  A
C871       C1008   1.493       .  S
Cd872       O879   2.462       .  S
Cd872       O878   2.450       .  S
Cd872       O877   2.473       .  S
Cd872       O873   2.456       .  S
Cd872       O876   2.483       .  S
Cd872       O874   2.502       .  S
C875        O879   1.266       .  A
C875       C1068   1.477       .  S
C880        C881   1.538       .  S
C880        C886   1.554       .  S
C880        C884   1.533       .  S
C880        C978   1.550       .  S
C881        H888   1.071       .  S
C881       C2298   1.357   1_545  D
C882        C883   1.550       .  S
C882       C2297   1.358       .  D
C882       C1321   1.516       .  S
C883       C2303   1.537       .  S
C883        C885   1.551       .  S
C883        H889   1.100       .  S
C884       H2306   1.086       .  S
C884       C2301   1.364   1_545  D
C885       C2300   1.362       .  D
C885        C991   1.488       .  S
C886        H891   1.086       .  S
C886        C887   1.377       .  D
C887       C2299   1.534   1_545  S
C887       C1281   1.502       .  S
H890       C2300   1.086       .  S
C892        C898   1.551       .  S
C892        C897   1.536       .  S
C892        C896   1.552       .  S
C892        H893   1.092       .  S
C894        C900   1.565       .  S
C894        C899   1.570       .  S
C894        C901   1.526       .  S
C894        H895   1.095       .  S
C896        C899   1.400       .  D
C896       C1341   1.536       .  S
C897        C900   1.389       .  D
C897        C981   1.510       .  S
C898        C901   1.371       .  D
C898       C1001   1.504       .  S
C899       C1391   1.538       .  S
C900        C971   1.530       .  S
C901        C958   1.506       .  S
C902        C903   1.543       .  S
C902        C908   1.545       .  S
C902        C906   1.541       .  S
C902        C968   1.563       .  S
C903        H910   1.078       .  S
C903        C904   1.351       .  D
C904       C2321   1.536   1_545  S
C904       C1291   1.497       .  S
C905       C2320   1.536       .  S
C905        C909   1.553       .  S
C905        C907   1.553       .  S
C905        H911   1.106       .  S
C906       H2328   1.085   1_545  S
C906       C2323   1.383   1_545  D
C907       C2322   1.383       .  D
C907        C951   1.519       .  S
C908        H913   1.084       .  S
C908       C2325   1.372   1_545  D
C909       C2324   1.375       .  D
C909       C1331   1.517       .  S
H912       C2322   1.085       .  S
C914        C920   1.559       .  S
C914        C919   1.538       .  S
C914        C918   1.558       .  S
C914        H915   1.081       .  S
C916        C922   1.571       .  S
C916        C921   1.556       .  S
C916        C923   1.550       .  S
C916        H917   1.103       .  S
C918       C1351   1.524       .  S
C919        C988   1.528       .  S
C920       C1011   1.541       .  S
C921       C1381   1.539       .  S
C922        C948   1.537       .  S
C923        C938   1.523       .  S
O924        C927   1.263       .  A
O924       Cd929   2.487       .  S
C925        O934   1.266       .  A
C925        O930   1.268       .  A
C925        C961   1.486       .  S
O926        C932   1.264       .  A
O926       Cd929   2.489       .  S
C927        O935   1.264       .  A
C927       C1031   1.474       .  S
C928        O933   1.264       .  A
C928        O931   1.263       .  A
C928       C1058   1.485       .  S
Cd929       O936   2.510       .  S
Cd929       O935   2.464       .  S
Cd929       O934   2.457       .  S
Cd929       O930   2.484       .  S
Cd929       O933   2.518       .  S
Cd929       O931   2.466       .  S
C932        O936   1.264       .  A
C932        C941   1.501       .  S
C937        C938   1.421       .  A
C937        C942   1.416       .  A
C938        C939   1.418       .  A
C939        C940   1.412       .  A
C939       Br946   1.921       .  S
C940        C941   1.415       .  A
C940       Br945   1.936       .  S
C941        C942   1.416       .  A
C942       Br943   1.935       .  S
C947        C948   1.421       .  A
C947        C952   1.414       .  A
C948        C949   1.424       .  A
C949        C950   1.422       .  A
C949       Br956   1.915       .  S
C950        C951   1.414       .  A
C950       Br955   1.932       .  S
C951        C952   1.414       .  A
C952      Br2369   1.934       .  S
Br953      C2368   1.934   1_545  S
C957        C958   1.417       .  A
C957        C962   1.413       .  A
C957       Br964   1.929       .  S
C958        C959   1.415       .  A
C959        C960   1.408       .  A
C959       Br966   1.922       .  S
C960        C961   1.410       .  A
C960       Br965   1.936       .  S
C961        C962   1.411       .  A
C962       Br963   1.931       .  S
C967        C968   1.417       .  A
C967        C972   1.433       .  A
C967       Br974   1.921       .  S
C968        C969   1.402       .  A
C969        C970   1.389       .  A
C969       Br976   1.929       .  S
C970        C971   1.417       .  A
C970       Br975   1.912       .  S
C971        C972   1.430       .  A
C972       Br973   1.925       .  S
C977        C978   1.417       .  A
C977        C982   1.420       .  A
C977       Br984   1.927       .  S
C978        C979   1.412       .  A
C979        C980   1.389       .  A
C979       Br986   1.928       .  S
C980        C981   1.410       .  A
C980       Br985   1.919       .  S
C981        C982   1.427       .  A
C982       Br983   1.929       .  S
C987        C988   1.439       .  A
C987        C992   1.412       .  A
C987       Br994   1.914       .  S
C988        C989   1.406       .  A
C989        C990   1.406       .  A
C990        C991   1.408       .  A
C990      Br2411   1.916       .  S
C991        C992   1.399       .  A
C992       Br993   1.937       .  S
Br995      C2406   1.917   1_545  S
C997        C998   1.405       .  A
C997       C1002   1.411       .  A
C997      Br1004   1.927       .  S
C998        C999   1.401       .  A
C999       C1000   1.402       .  A
C999      Br1006   1.936       .  S
C1000      C1001   1.418       .  A
C1000     Br1005   1.913       .  S
C1001      C1002   1.417       .  A
C1002     Br1003   1.925       .  S
C1007      C1008   1.412       .  A
C1007      C1012   1.409       .  A
C1007     Br1014   1.927       .  S
C1008      C1009   1.416       .  A
C1009      C1010   1.415       .  A
C1009     Br1016   1.934       .  S
C1010      C1011   1.423       .  A
C1010     Br1015   1.934       .  S
C1011      C1012   1.410       .  A
C1017      C1018   1.403       .  A
C1017      C1022   1.408       .  A
C1017     Br1024   1.942       .  S
C1018      C1019   1.406       .  A
C1019      C1020   1.412       .  A
C1019     Br1026   1.935       .  S
C1020      C1021   1.422       .  A
C1020     Br1025   1.920       .  S
C1021      C1022   1.422       .  A
C1027      C1028   1.416       .  A
C1027      C1032   1.411       .  A
C1027     Br1034   1.927       .  S
C1028      C1029   1.418       .  A
C1029      C1030   1.407       .  A
C1029     Br1036   1.921       .  S
C1030      C1031   1.406       .  A
C1030     Br1035   1.935       .  S
C1031      C1032   1.405       .  A
C1032     Br1033   1.927       .  S
C1037      C1038   1.414       .  A
C1037      C1042   1.407       .  A
C1037     Br1044   1.942       .  S
C1038      C1039   1.418       .  A
C1039      C1040   1.433       .  A
C1039     Br1046   1.930       .  S
C1040      C1041   1.432       .  A
C1040     Br1045   1.927       .  S
C1041      C1042   1.424       .  A
C1042     Br1043   1.928       .  S
C1047      C1048   1.422       .  A
C1047      C1052   1.385       .  A
C1048      C1049   1.440       .  A
C1049      C1050   1.431       .  A
C1049     Br1056   1.924       .  S
C1050      C1051   1.416       .  A
C1050     Br1055   1.921       .  S
C1051      C1052   1.400       .  A
C1052     Br1053   1.923       .  S
C1057      C1058   1.406       .  A
C1057      C1062   1.409       .  A
C1057     Br1064   1.940       .  S
C1058      C1059   1.406       .  A
C1059      C1060   1.416       .  A
C1059     Br1066   1.930       .  S
C1060      C1061   1.424       .  A
C1060     Br1065   1.930       .  S
C1061      C1062   1.422       .  A
C1062     Br1063   1.917       .  S
C1067      C1068   1.403       .  A
C1067      C1072   1.409       .  A
C1067     Br1074   1.929       .  S
C1068      C1069   1.405       .  A
C1069      C1070   1.412       .  A
C1069     Br1076   1.938       .  S
C1070      C1071   1.426       .  A
C1070     Br1075   1.915       .  S
C1071      C1072   1.415       .  A
C1072     Br1073   1.914       .  S
C1077      C1078   1.428       .  A
C1077      C1082   1.438       .  A
C1077     Br1084   1.924       .  S
C1078      C1079   1.416       .  A
C1079      C1080   1.400       .  A
C1079     Br1086   1.931       .  S
C1080      C1081   1.402       .  A
C1080     Br1085   1.909       .  S
C1081      C1082   1.421       .  A
C1082     Br1083   1.925       .  S
C1087      C1088   1.448       .  A
C1087      C1092   1.414       .  A
C1087     Br1094   1.945       .  S
C1088      C1089   1.421       .  A
C1089      C1090   1.409       .  A
C1089     Br1096   1.917       .  S
C1090      C1091   1.405       .  A
C1090     Br1095   1.920       .  S
C1091      C1092   1.408       .  A
C1092     Br1093   1.953       .  S
C1097      C1098   1.423       .  A
C1097      C1102   1.417       .  A
C1097     Br1104   1.916       .  S
C1098      C1099   1.426       .  A
C1099      C1100   1.422       .  A
C1099     Br1106   1.931       .  S
C1100      C1101   1.416       .  A
C1100     Br1105   1.923       .  S
C1101      C1102   1.414       .  A
C1102     Br1103   1.929       .  S
C1107      C1108   1.413       .  A
C1107      C1112   1.425       .  A
C1107     Br1114   1.916       .  S
C1108      C1109   1.412       .  A
C1109      C1110   1.404       .  A
C1109     Br1116   1.941       .  S
C1110      C1111   1.422       .  A
C1110     Br1115   1.907       .  S
C1111      C1112   1.431       .  A
C1117      C1118   1.459       .  A
C1117      C1122   1.424       .  A
C1117     Br1124   1.945       .  S
C1118      C1119   1.394       .  A
C1119      C1120   1.397       .  A
C1120      C1121   1.399       .  A
C1120     Br1125   1.917       .  S
C1121      C1122   1.417       .  A
C1122     Br1123   1.942       .  S
C1127      C1128   1.394       .  A
C1127      C1132   1.392       .  A
C1127     Br1134   1.917       .  S
C1128      C1129   1.403       .  A
C1129      C1130   1.411       .  A
C1129     Br1136   1.926       .  S
C1130      C1131   1.423       .  A
C1130     Br1135   1.919       .  S
C1131      C1132   1.413       .  A
C1132     Br1133   1.912       .  S
C1137      C1138   1.407       .  A
C1137      C1142   1.388       .  A
C1137     Br1144   1.904       .  S
C1138      C1139   1.423       .  A
C1139      C1140   1.428       .  A
C1139     Br2562   1.915   1_545  S
C1140      C1141   1.429       .  A
C1140     Br1145   1.923       .  S
C1141      C1142   1.410       .  A
C1142     Br1143   1.911       .  S
Br1146     C2555   1.908       .  S
C1147      C1148   1.422       .  A
C1147      C1152   1.408       .  A
C1147     Br1154   1.922       .  S
C1148      C1149   1.423       .  A
C1149      C1150   1.413       .  A
C1149     Br1156   1.927       .  S
C1150      C1151   1.410       .  A
C1150     Br1155   1.924       .  S
C1151      C1152   1.409       .  A
C1152     Br1153   1.931       .  S
C1157      C1158   1.417       .  A
C1157      C1162   1.408       .  A
C1157     Br1164   1.932       .  S
C1158      C1159   1.422       .  A
C1159      C1160   1.409       .  A
C1159     Br1166   1.926       .  S
C1160      C1161   1.408       .  A
C1160     Br2581   1.935   1_545  S
C1161      C1162   1.413       .  A
C1162     Br1163   1.937       .  S
Br1165     C2576   1.935       .  S
C1167      C1168   1.432       .  A
C1167      C1172   1.400       .  A
C1167     Br1174   1.920       .  S
C1168      C1169   1.425       .  A
C1169      C1170   1.424       .  A
C1169     Br1176   1.924       .  S
C1170      C1171   1.415       .  A
C1170     Br1175   1.921       .  S
C1171      C1172   1.406       .  A
C1172     Br1173   1.938       .  S
C1177      C1178   1.421       .  A
C1177      C1182   1.423       .  A
C1177     Br1184   1.929       .  S
C1178      C1179   1.442       .  A
C1179      C1180   1.414       .  A
C1179     Br1186   1.945       .  S
C1180      C1181   1.413       .  A
C1180     Br1185   1.936       .  S
C1181      C1182   1.422       .  A
C1182     Br1183   1.927       .  S
C1187      C1188   1.416       .  A
C1187      C1192   1.410       .  A
C1187     Br1194   1.914       .  S
C1188      C1189   1.413       .  A
C1189      C1190   1.412       .  A
C1189     Br1196   1.919       .  S
C1190      C1191   1.416       .  A
C1190     Br2611   1.932       .  S
C1191      C1192   1.410       .  A
C1192     Br1193   1.925       .  S
Br1195     C2606   1.935   1_545  S
C1197      C1198   1.417       .  A
C1197      C1202   1.409       .  A
C1197     Br1204   1.905       .  S
C1198      C1199   1.418       .  A
C1199      C1200   1.414       .  A
C1199     Br1206   1.915       .  S
C1200      C1201   1.422       .  A
C1200     Br1205   1.942       .  S
C1201      C1202   1.412       .  A
C1202     Br1203   1.931       .  S
C1207      C1208   1.408       .  A
C1207      C1212   1.413       .  A
C1207     Br1214   1.935       .  S
C1208      C1209   1.410       .  A
C1209      C1210   1.410       .  A
C1209     Br1216   1.935       .  S
C1210      C1211   1.422       .  A
C1210     Br1215   1.934       .  S
C1211      C1212   1.425       .  A
C1217      C1218   1.410       .  A
C1217      C1222   1.416       .  A
C1217     Br1224   1.926       .  S
C1218      C1219   1.402       .  A
C1219      C1220   1.416       .  A
C1219     Br1226   1.915   1_556  S
C1220      C1221   1.439       .  A
C1220     Br1225   1.929       .  S
C1221      C1222   1.431       .  A
C1222     Br1223   1.937       .  S
C1227      C1228   1.416       .  A
C1227      C1232   1.418       .  A
C1228      C1229   1.415       .  A
C1229      C1230   1.414       .  A
C1229     Br1236   1.927       .  S
C1230      C1231   1.410       .  A
C1230     Br1235   1.917       .  S
C1231      C1232   1.415       .  A
C1232     Br1233   1.928       .  S
C1237      C1238   1.403       .  A
C1237      C1242   1.412       .  A
C1237     Br1244   1.933       .  S
C1238      C1239   1.403       .  A
C1239      C1240   1.412       .  A
C1239     Br1246   1.928       .  S
C1240      C1241   1.423       .  A
C1240     Br1245   1.926       .  S
C1241      C1242   1.425       .  A
C1242     Br1243   1.921       .  S
C1247      C1248   1.408       .  A
C1247      C1252   1.413       .  A
C1247     Br1254   1.935       .  S
C1248      C1249   1.408       .  A
C1249      C1250   1.418       .  A
C1249     Br1256   1.925       .  S
C1250      C1251   1.422       .  A
C1251      C1252   1.433       .  A
C1252     Br1253   1.938       .  S
C1257      C1258   1.405       .  A
C1257      C1262   1.408       .  A
C1257     Br1264   1.938       .  S
C1258      C1259   1.403       .  A
C1259      C1260   1.409       .  A
C1259     Br1266   1.927       .  S
C1260      C1261   1.418       .  A
C1261      C1262   1.424       .  A
C1262     Br1263   1.922       .  S
C1267      C1268   1.422       .  A
C1267      C1272   1.412       .  A
C1268      C1269   1.419       .  A
C1269      C1270   1.412       .  A
C1269     Br1276   1.931       .  S
C1270      C1271   1.412       .  A
C1270     Br1275   1.935       .  S
C1271      C1272   1.412       .  A
C1272     Br1273   1.937   1_545  S
C1277      C1278   1.414       .  A
C1277      C1282   1.402       .  A
C1277     Br1284   1.933       .  S
C1278      C1279   1.429       .  A
C1279      C1280   1.418       .  A
C1280      C1281   1.408       .  A
C1280     Br1285   1.931       .  S
C1281      C1282   1.412       .  A
C1282     Br1283   1.913       .  S
C1287      C1288   1.427       .  A
C1287      C1292   1.406       .  A
C1287     Br1294   1.915       .  S
C1288      C1289   1.423       .  A
C1289      C1290   1.407       .  A
C1290      C1291   1.406       .  A
C1290     Br1295   1.929   1_545  S
C1291      C1292   1.416       .  A
C1292     Br1293   1.950       .  S
C1297      C1298   1.415       .  A
C1297      C1302   1.412       .  A
C1297     Br1304   1.931       .  S
C1298      C1299   1.405       .  A
C1299      C1300   1.403       .  A
C1299     Br1306   1.911       .  S
C1300      C1301   1.408       .  A
C1300     Br1305   1.927       .  S
C1301      C1302   1.417       .  A
C1302     Br1303   1.930       .  S
C1307      C1308   1.412       .  A
C1307      C1312   1.417       .  A
C1307     Br1314   1.931       .  S
C1308      C1309   1.411       .  A
C1309      C1310   1.413       .  A
C1309     Br2732   1.938       .  S
C1310      C1311   1.420       .  A
C1310     Br1315   1.914       .  S
C1311      C1312   1.418       .  A
C1312     Br1313   1.925       .  S
Br1316     C2725   1.938   1_545  S
C1317      C1318   1.414       .  A
C1317      C1322   1.413       .  A
C1317     Br1324   1.917       .  S
C1318      C1319   1.422       .  A
C1319      C1320   1.404       .  A
C1319     Br1326   1.913       .  S
C1320      C1321   1.409       .  A
C1320     Br1325   1.932       .  S
C1321      C1322   1.426       .  A
C1322     Br2739   1.944       .  S
Br1323     C2738   1.947   1_545  S
C1327      C1328   1.425       .  A
C1327      C1332   1.421       .  A
C1327     Br1334   1.924       .  S
C1328      C1329   1.415       .  A
C1329      C1330   1.412       .  A
C1329     Br1336   1.914       .  S
C1330      C1331   1.414       .  A
C1330     Br2751   1.921       .  S
C1331      C1332   1.416       .  A
C1332     Br1333   1.933       .  S
Br1335     C2746   1.919   1_545  S
C1337      C1338   1.427       .  A
C1337      C1342   1.425       .  A
C1337     Br1344   1.932       .  S
C1338      C1339   1.410       .  A
C1339      C1340   1.398       .  A
C1339     Br1346   1.935       .  S
C1340      C1341   1.414       .  A
C1340     Br1345   1.927       .  S
C1341      C1342   1.418       .  A
C1342     Br1343   1.927       .  S
C1347      C1348   1.411       .  A
C1347      C1352   1.415       .  A
C1347     Br1354   1.929       .  S
C1348      C1349   1.415       .  A
C1349      C1350   1.418       .  A
C1349     Br1356   1.924       .  S
C1350      C1351   1.421       .  A
C1350     Br1355   1.929       .  S
C1351      C1352   1.421       .  A
C1352     Br1353   1.912       .  S
C1357      C1358   1.404       .  A
C1357      C1362   1.397       .  A
C1357     Br1364   1.896       .  S
C1358      C1359   1.413       .  A
C1359      C1360   1.426       .  A
C1359     Br1366   1.933       .  S
C1360      C1361   1.448       .  A
C1360     Br1365   1.941       .  S
C1361      C1362   1.410       .  A
C1362     Br1363   1.928       .  S
C1367      C1368   1.421       .  A
C1367      C1372   1.431       .  A
C1367     Br1374   1.926       .  S
C1368      C1369   1.419       .  A
C1369      C1370   1.385       .  A
C1369     Br1376   1.914       .  S
C1370      C1371   1.415       .  A
C1370     Br1375   1.945       .  S
C1371      C1372   1.426       .  A
C1372     Br1373   1.920       .  S
C1377      C1378   1.414       .  A
C1377      C1382   1.395       .  A
C1377     Br1384   1.928       .  S
C1378      C1379   1.425       .  A
C1379      C1380   1.423       .  A
C1379     Br1386   1.929       .  S
C1380      C1381   1.424       .  A
C1380     Br1385   1.921       .  S
C1381      C1382   1.400       .  A
C1387      C1388   1.408       .  A
C1387      C1392   1.403       .  A
C1387     Br1394   1.919       .  S
C1388      C1389   1.412       .  A
C1389      C1390   1.421       .  A
C1389     Br1396   1.913       .  S
C1390      C1391   1.421       .  A
C1390     Br1395   1.926       .  S
C1391      C1392   1.416       .  A
C1392     Br1393   1.932       .  S
C1397      C1398   1.400       .  A
C1397      C1402   1.401       .  A
C1397     Br1404   1.933       .  S
C1398      C1399   1.420       .  A
C1399      C1400   1.425       .  A
C1399     Br1406   1.925       .  S
C1400      C1401   1.421       .  A
C1400     Br1405   1.925       .  S
C1401      C1402   1.425       .  A
C1402     Br1403   1.912       .  S
C1407      C1408   1.422       .  A
C1407      C1412   1.423       .  A
C1407     Br1414   1.928       .  S
C1408      C1409   1.422       .  A
C1409      C1410   1.403       .  A
C1409     Br1416   1.936       .  S
C1410      C1411   1.410       .  A
C1410     Br1415   1.906       .  S
C1411      C1412   1.420       .  A
C1412     Br1413   1.930       .  S
C1417      C1418   1.538       .  S
C1417      C1423   1.539       .  S
C1417      C1421   1.556       .  S
C1417      C2116   1.565       .  S
C1418      H1425   1.081       .  S
C1418      C1419   1.369       .  D
C1419      C1420   1.545       .  S
C1419      C2086   1.522       .  S
C1420      C1424   1.540       .  S
C1420      C1422   1.551       .  S
C1420      H1426   1.101       .  S
C1421      H1427   1.081       .  S
C1421      C1422   1.374       .  D
C1422      C2106   1.515       .  S
C1423      H1428   1.086       .  S
C1423      C1424   1.364       .  D
C1424      C2096   1.490       .  S
C1429      C1430   1.526       .  S
C1429      C1435   1.545       .  S
C1429      C1433   1.554       .  S
C1429      C2079   1.559       .  S
C1430      H1437   1.082       .  S
C1430      C1431   1.346       .  D
C1431      C1432   1.552       .  S
C1431      C2046   1.487       .  S
C1432      C1436   1.525       .  S
C1432      C1434   1.554       .  S
C1432      H1438   1.092       .  S
C1433      H1439   1.082       .  S
C1433      C1434   1.393       .  D
C1434      C2066   1.534       .  S
C1435      H1440   1.086       .  S
C1435      C1436   1.366       .  D
C1436      C2056   1.505       .  S
C1441      C1447   1.551       .  S
C1441      C1446   1.544       .  S
C1441      C1445   1.571       .  S
C1441      H1442   1.088       .  S
C1443      C1449   1.575       .  S
C1443      C1448   1.544       .  S
C1443      C1450   1.561       .  S
C1443      H1444   1.088       .  S
C1445      C1448   1.378       .  D
C1445      C2036   1.533       .  S
C1446      C1449   1.410       .  D
C1446      C2109   1.534       .  S
C1447      C1450   1.387       .  D
C1447      C2006   1.535       .  S
C1448      C2026   1.526       .  S
C1449      C2069   1.549       .  S
C1450      C2019   1.523       .  S
C1451      C1457   1.544       .  S
C1451      C1456   1.566       .  S
C1451      C1455   1.566       .  S
C1451      H1452   1.101       .  S
C1453      C1459   1.542       .  S
C1453      C1458   1.555       .  S
C1453      C1460   1.545       .  S
C1453      H1454   1.085       .  S
C1455      C2166   1.388   1_554  D
C1455      C1996   1.533       .  S
C1456      C2167   1.400   1_554  D
C1456      C2119   1.518       .  S
C1457      C2168   1.375   1_554  D
C1457      C1969   1.515       .  S
C1458      C2163   1.389       .  D
C1458      C1986   1.525       .  S
C1459      C2164   1.400       .  D
C1459      C2076   1.535       .  S
C1460      C2165   1.372       .  D
C1460      C1976   1.512       .  S
O1461      C1464   1.263       .  A
C1462      O1467   1.265       .  A
C1462      C1979   1.493       .  S
O1463      C1469   1.266       .  A
O1463     Cd1466   2.471       .  S
C1464      C1946   1.492       .  S
C1465      O1470   1.263       .  A
C1465      C1956   1.492       .  S
Cd1466     O1472   2.498   1_665  S
Cd1466     O1471   2.476   1_565  S
Cd1466     O1470   2.474   1_655  S
C1469      C2016   1.497       .  S
C1474      C1480   1.563       .  S
C1474      C1479   1.575       .  S
C1474      C1478   1.539       .  S
C1474      H1475   1.078       .  S
C1476      C1482   1.540       .  S
C1476      C1481   1.562       .  S
C1476      C1483   1.563       .  S
C1476      H1477   1.091       .  S
C1478      C2189   1.378   1_554  D
C1478      C1896   1.513       .  S
C1479      C2190   1.395   1_554  D
C1479      C1936   1.555       .  S
C1480      C2191   1.404   1_554  D
C1480      C1919   1.550       .  S
C1481      C2186   1.377       .  D
C1481      C1906   1.523       .  S
C1482      C2187   1.393       .  D
C1482      C1926   1.515       .  S
C1483      C2188   1.404       .  D
C1483      C1959   1.539       .  S
C1484      C1490   1.551       .  S
C1484      C1489   1.554       .  S
C1484      C1488   1.556       .  S
C1484      H1485   1.100       .  S
C1486      C1492   1.565       .  S
C1486      C1491   1.568       .  S
C1486      C1493   1.548       .  S
C1486      H1487   1.104       .  S
C1488      C1491   1.387       .  D
C1488      C1856   1.524       .  S
C1489      C1492   1.395       .  D
C1489      C1876   1.540       .  S
C1490      C1493   1.379       .  D
C1490      C1866   1.506       .  S
C1491      C1849   1.530       .  S
C1492      C1889   1.525       .  S
C1493      C1949   1.531       .  S
C1494      C1495   1.529       .  S
C1494      C1500   1.538       .  S
C1494      C1498   1.567       .  S
C1494      C1886   1.574       .  S
C1495      H1502   1.084       .  S
C1495      C1496   1.357       .  D
C1496      C1497   1.551       .  S
C1496      C1829   1.501       .  S
C1497      C1501   1.516       .  S
C1497      C1499   1.554       .  S
C1497      H1503   1.094       .  S
C1498      H1504   1.076       .  S
C1498      C1499   1.398       .  D
C1499      C1929   1.534       .  S
C1500      H1505   1.087       .  S
C1500      C1501   1.351       .  D
C1501      C1836   1.474       .  S
C1506      C1507   1.548       .  S
C1506      C1512   1.540       .  S
C1506      C1510   1.530       .  S
C1506      C1879   1.560       .  S
C1507      H1514   1.086       .  S
C1507      C1508   1.375       .  D
C1508      C1509   1.558       .  S
C1508      C1809   1.528       .  S
C1509      C1513   1.562       .  S
C1509      C1511   1.563       .  S
C1509      H1515   1.102       .  S
C1510      H1516   1.086       .  S
C1510      C1511   1.368       .  D
C1511      C1939   1.506       .  S
C1512      H1517   1.075       .  S
C1512      C1513   1.365       .  D
C1513      C1816   1.528       .  S
O1518      C1521   1.263       .  A
C1519      O1524   1.263       .  A
C1519      C1869   1.484       .  S
O1520      C1526   1.263       .  A
O1520     Cd1523   2.472       .  S
C1521      C1966   1.475       .  S
C1522      O1527   1.267       .  A
C1522      C1916   1.487       .  S
Cd1523     O1529   2.471   1_565  S
Cd1523     O1528   2.464   1_655  S
Cd1523     O1527   2.470   1_655  S
C1526      C2009   1.487       .  S
C1531      C1537   1.534       .  S
C1531      C1536   1.571       .  S
C1531      C1535   1.562       .  S
C1531      H1532   1.096       .  S
C1533      C1539   1.560       .  S
C1533      C1538   1.539       .  S
C1533      C1540   1.570       .  S
C1533      H1534   1.063       .  S
C1535      C1538   1.378       .  D
C1535      C1839   1.501       .  S
C1536      C1539   1.421       .  D
C1536      C1786   1.562       .  S
C1537      C1540   1.377       .  D
C1537      C1779   1.522       .  S
C1538      C1806   1.547       .  S
C1539      C1796   1.547       .  S
C1540      C1769   1.514       .  S
C1541      C1547   1.545       .  S
C1541      C1546   1.566       .  S
C1541      C1545   1.540       .  S
C1541      H1542   1.086       .  S
C1543      C1549   1.561       .  S
C1543      C1548   1.578       .  S
C1543      C1550   1.543       .  S
C1543      H1544   1.101       .  S
C1545      C2256   1.419       .  D
C1545      C1826   1.541       .  S
C1546      C2257   1.384       .  D
C1546      C1746   1.515       .  S
C1547      C2258   1.379       .  D
C1547      C1729   1.530       .  S
C1548      C2253   1.417   1_554  D
C1548      C1819   1.545       .  S
C1549      C2254   1.387   1_554  D
C1549      C1756   1.548       .  S
C1550      C2255   1.375   1_554  D
C1550      C1736   1.506       .  S
C1551      C1552   1.525       .  S
C1551      C1557   1.546       .  S
C1551      C1555   1.559       .  S
C1551      C1749   1.566       .  S
C1552      H1559   1.085       .  S
C1553      C1554   1.548       .  S
C1553      C1909   1.509       .  S
C1554      C1556   1.549       .  S
C1554      H1560   1.098       .  S
C1555      H1561   1.081       .  S
C1556      C1789   1.513       .  S
C1557      H1562   1.085       .  S
C1557      C1558   1.374       .  D
C1558      C1846   1.537       .  S
C1563      C1564   1.544       .  S
C1563      C1569   1.553       .  S
C1563      C1567   1.531       .  S
C1563      C1759   1.551       .  S
C1564      H1571   1.086       .  S
C1564      C1565   1.372       .  D
C1565      C1859   1.504       .  S
C1566      C1570   1.537       .  S
C1566      C1568   1.551       .  S
C1566      H1572   1.108       .  S
C1567      H1573   1.086       .  S
C1568      C1799   1.500       .  S
C1569      H1574   1.080       .  S
C1570      C1899   1.496       .  S
O1575      C1578   1.266       .  A
O1575     Cd1580   2.463       .  S
C1576      O1585   1.265       .  A
C1576      O1581   1.263       .  A
C1576      C1706   1.479       .  S
O1577      C1583   1.267       .  A
O1577     Cd1580   2.477       .  S
C1578      O1586   1.265       .  A
C1578      C1726   1.483       .  S
C1579      O1584   1.264       .  A
C1579      O1582   1.264       .  A
C1579      C1716   1.486       .  S
Cd1580     O1587   2.458       .  S
Cd1580     O1586   2.463       .  S
Cd1580     O1585   2.500       .  S
Cd1580     O1581   2.458       .  S
Cd1580     O1584   2.478       .  S
Cd1580     O1582   2.486       .  S
C1583      O1587   1.265       .  A
C1583      C1776   1.479       .  S
C1588      C1589   1.543       .  S
C1588      C1594   1.553       .  S
C1588      C1592   1.529       .  S
C1588      C1686   1.546       .  S
C1589      H1596   1.072       .  S
C1590      C1591   1.551       .  S
C1590      C2029   1.517       .  S
C1591      C1593   1.555       .  S
C1591      H1597   1.100       .  S
C1593      C1699   1.491       .  S
C1594      H1599   1.085       .  S
C1594      C1595   1.375       .  D
C1595      C1989   1.501       .  S
C1600      C1606   1.549       .  S
C1600      C1605   1.540       .  S
C1600      C1604   1.553       .  S
C1600      H1601   1.095       .  S
C1602      C1608   1.561       .  S
C1602      C1607   1.570       .  S
C1602      C1609   1.526       .  S
C1602      H1603   1.093       .  S
C1604      C1607   1.409       .  D
C1604      C2049   1.537       .  S
C1605      C1608   1.387       .  D
C1605      C1689   1.506       .  S
C1606      C1609   1.369       .  D
C1606      C1709   1.512       .  S
C1607      C2099   1.544       .  S
C1608      C1679   1.534       .  S
C1609      C1666   1.495       .  S
C1610      C1611   1.543       .  S
C1610      C1616   1.545       .  S
C1610      C1614   1.541       .  S
C1610      C1676   1.564       .  S
C1611      H1618   1.077       .  S
C1611      C1612   1.351       .  D
C1612      C1999   1.503       .  S
C1613      C1617   1.550       .  S
C1613      C1615   1.554       .  S
C1613      H1619   1.107       .  S
C1615      C1659   1.517       .  S
C1616      H1621   1.084       .  S
C1617      C2039   1.510       .  S
C1622      C1628   1.555       .  S
C1622      C1627   1.531       .  S
C1622      C1626   1.554       .  S
C1622      H1623   1.082       .  S
C1624      C1630   1.569       .  S
C1624      C1629   1.556       .  S
C1624      C1631   1.550       .  S
C1624      H1625   1.102       .  S
C1626      C2337   1.390       .  D
C1626      C2059   1.513       .  S
C1627      C2338   1.404       .  D
C1627      C1696   1.530       .  S
C1628      C2339   1.395       .  D
C1628      C1719   1.537       .  S
C1629      C2334   1.392   1_554  D
C1629      C2089   1.544       .  S
C1630      C2335   1.404   1_554  D
C1630      C1656   1.535       .  S
C1631      C2336   1.394   1_554  D
C1631      C1646   1.519       .  S
O1632      C1635   1.264       .  A
O1632     Cd1637   2.484       .  S
C1633      O1642   1.266       .  A
C1633      O1638   1.267       .  A
C1633      C1669   1.475       .  S
O1634      C1640   1.264       .  A
O1634     Cd1637   2.493       .  S
C1635      O1643   1.265       .  A
C1635      C1739   1.474       .  S
C1636      O1641   1.264       .  A
C1636      O1639   1.264       .  A
C1636      C1766   1.484       .  S
Cd1637     O1644   2.487       .  S
Cd1637     O1643   2.446       .  S
Cd1637     O1642   2.429       .  S
Cd1637     O1638   2.464       .  S
Cd1637     O1641   2.484       .  S
Cd1637     O1639   2.472       .  S
C1640      O1644   1.265       .  A
C1640      C1649   1.495       .  S
C1645      C1646   1.419       .  A
C1645      C1650   1.415       .  A
C1645     Br2360   1.921       .  S
C1646      C1647   1.416       .  A
C1647      C1648   1.410       .  A
C1647     Br1654   1.917   1_554  S
C1648      C1649   1.413       .  A
C1648     Br1653   1.938       .  S
C1649      C1650   1.413       .  A
C1650     Br1651   1.933       .  S
Br1652     C2353   1.921       .  S
C1655      C1656   1.420       .  A
C1655      C1660   1.413       .  A
C1655     Br2370   1.909       .  S
C1656      C1657   1.425       .  A
C1657      C1658   1.421       .  A
C1657     Br1664   1.916       .  S
C1658      C1659   1.414       .  A
C1658     Br1663   1.931       .  S
C1659      C1660   1.413       .  A
Br1662     C2363   1.912       .  S
C1665      C1666   1.415       .  A
C1665      C1670   1.411       .  A
C1665     Br1672   1.930       .  S
C1666      C1667   1.413       .  A
C1667      C1668   1.402       .  A
C1667     Br1674   1.919       .  S
C1668      C1669   1.408       .  A
C1668     Br1673   1.938       .  S
C1669      C1670   1.410       .  A
C1670     Br1671   1.930       .  S
C1675      C1676   1.416       .  A
C1675      C1680   1.434       .  A
C1675     Br1682   1.922       .  S
C1676      C1677   1.402       .  A
C1677      C1678   1.390       .  A
C1677     Br1684   1.931       .  S
C1678      C1679   1.419       .  A
C1678     Br1683   1.913       .  S
C1679      C1680   1.432       .  A
C1680     Br1681   1.925       .  S
C1685      C1686   1.418       .  A
C1685      C1690   1.421       .  A
C1685     Br1692   1.927       .  S
C1686      C1687   1.406       .  A
C1687      C1688   1.387       .  A
C1687     Br1694   1.922       .  S
C1688      C1689   1.410       .  A
C1688     Br1693   1.919       .  S
C1689      C1690   1.426       .  A
C1690     Br1691   1.929       .  S
C1695      C1696   1.439       .  A
C1695      C1700   1.412       .  A
C1695     Br1702   1.916       .  S
C1696      C1697   1.409       .  A
C1697      C1698   1.407       .  A
C1697     Br2412   1.926       .  S
C1698      C1699   1.410       .  A
C1699      C1700   1.398       .  A
C1700     Br1701   1.939       .  S
Br1704     C2405   1.927       .  S
C1705      C1706   1.407       .  A
C1705      C1710   1.414       .  A
C1705     Br1712   1.928       .  S
C1706      C1707   1.403       .  A
C1707      C1708   1.405       .  A
C1707     Br1714   1.937       .  S
C1708      C1709   1.419       .  A
C1708     Br1713   1.911       .  S
C1709      C1710   1.418       .  A
C1710     Br1711   1.925       .  S
C1715      C1716   1.411       .  A
C1715      C1720   1.410       .  A
C1715     Br1722   1.927       .  S
C1716      C1717   1.412       .  A
C1717      C1718   1.410       .  A
C1717     Br1724   1.932       .  S
C1718      C1719   1.423       .  A
C1718     Br1723   1.934       .  S
C1719      C1720   1.412       .  A
C1720     Br2429   1.926       .  S
Br1721     C2428   1.925       .  S
C1725      C1726   1.405       .  A
C1725      C1730   1.410       .  A
C1725     Br1732   1.942       .  S
C1726      C1727   1.405       .  A
C1727      C1728   1.414       .  A
C1727     Br1734   1.935       .  S
C1728      C1729   1.424       .  A
C1728     Br1733   1.919       .  S
C1729      C1730   1.424       .  A
C1730     Br2439   1.909       .  S
Br1731     C2438   1.906   1_554  S
C1735      C1736   1.416       .  A
C1735      C1740   1.409       .  A
C1735     Br1742   1.927       .  S
C1736      C1737   1.416       .  A
C1737      C1738   1.406       .  A
C1737     Br1744   1.920       .  S
C1738      C1739   1.407       .  A
C1738     Br1743   1.936       .  S
C1739      C1740   1.406       .  A
C1740     Br1741   1.928       .  S
C1745      C1746   1.414       .  A
C1745      C1750   1.403       .  A
C1745     Br1752   1.943       .  S
C1746      C1747   1.417       .  A
C1747      C1748   1.430       .  A
C1747     Br1754   1.930       .  S
C1748      C1749   1.428       .  A
C1748     Br1753   1.927       .  S
C1749      C1750   1.425       .  A
C1750     Br1751   1.936       .  S
C1755      C1756   1.423       .  A
C1755      C1760   1.385       .  A
C1755     Br2470   1.899       .  S
C1756      C1757   1.440       .  A
C1757      C1758   1.430       .  A
C1757     Br1764   1.924       .  S
C1758      C1759   1.415       .  A
C1758     Br1763   1.921       .  S
C1759      C1760   1.398       .  A
C1760     Br1761   1.922       .  S
Br1762     C2463   1.902       .  S
C1765      C1766   1.408       .  A
C1765      C1770   1.409       .  A
C1765     Br1772   1.939       .  S
C1766      C1767   1.407       .  A
C1767      C1768   1.413       .  A
C1767     Br1774   1.931       .  S
C1768      C1769   1.420       .  A
C1768     Br1773   1.929       .  S
C1769      C1770   1.421       .  A
C1770     Br1771   1.919       .  S
C1775      C1776   1.405       .  A
C1775      C1780   1.411       .  A
C1775     Br1782   1.930       .  S
C1776      C1777   1.406       .  A
C1777      C1778   1.410       .  A
C1777     Br1784   1.939       .  S
C1778      C1779   1.422       .  A
C1778     Br1783   1.911       .  S
C1779      C1780   1.417       .  A
C1780     Br1781   1.917       .  S
C1785      C1786   1.424       .  A
C1785      C1790   1.433       .  A
C1785     Br1792   1.925       .  S
C1786      C1787   1.422       .  A
C1787      C1788   1.403       .  A
C1787     Br1794   1.931       .  S
C1788      C1789   1.402       .  A
C1788     Br1793   1.913       .  S
C1789      C1790   1.419       .  A
C1790     Br1791   1.925   1_565  S
C1795      C1796   1.447       .  A
C1795      C1800   1.416       .  A
C1795     Br1802   1.943       .  S
C1796      C1797   1.422       .  A
C1797      C1798   1.411       .  A
C1797     Br1804   1.917       .  S
C1798      C1799   1.406       .  A
C1798     Br1803   1.920       .  S
C1799      C1800   1.409       .  A
C1800     Br1801   1.951       .  S
C1805      C1806   1.422       .  A
C1805      C1810   1.418       .  A
C1805     Br1812   1.917       .  S
C1806      C1807   1.428       .  A
C1807      C1808   1.425       .  A
C1807     Br1814   1.932       .  S
C1808      C1809   1.417       .  A
C1808     Br1813   1.924       .  S
C1809      C1810   1.415       .  A
C1810     Br1811   1.929       .  S
C1815      C1816   1.414       .  A
C1815      C1820   1.424       .  A
C1815     Br1822   1.917       .  S
C1816      C1817   1.414       .  A
C1817      C1818   1.404       .  A
C1817     Br1824   1.942       .  S
C1818      C1819   1.420       .  A
C1818     Br1823   1.904       .  S
C1819      C1820   1.429       .  A
C1820     Br2529   1.903       .  S
Br1821     C2528   1.902       .  S
C1825      C1826   1.457       .  A
C1825      C1830   1.429       .  A
C1825     Br1832   1.940       .  S
C1826      C1827   1.391       .  A
C1827      C1828   1.395       .  A
C1827     Br2542   1.932       .  S
C1828      C1829   1.396       .  A
C1828     Br1833   1.917       .  S
C1829      C1830   1.422       .  A
C1830     Br1831   1.939       .  S
Br1834     C2535   1.932       .  S
C1835      C1836   1.392       .  A
C1835      C1840   1.391       .  A
C1835     Br1842   1.919       .  S
C1836      C1837   1.402       .  A
C1837      C1838   1.411       .  A
C1837     Br1844   1.925       .  S
C1838      C1839   1.425       .  A
C1838     Br1843   1.922       .  S
C1839      C1840   1.417       .  A
C1840     Br1841   1.915       .  S
C1845      C1846   1.415       .  A
C1845      C1850   1.395       .  A
C1845     Br1852   1.909       .  S
C1846      C1847   1.422       .  A
C1847      C1848   1.425       .  A
C1848      C1849   1.427       .  A
C1848     Br1853   1.922       .  S
C1849      C1850   1.411       .  A
C1850     Br1851   1.917       .  S
C1855      C1856   1.423       .  A
C1855      C1860   1.411       .  A
C1855     Br1862   1.923       .  S
C1856      C1857   1.425       .  A
C1857      C1858   1.413       .  A
C1857     Br1864   1.926       .  S
C1858      C1859   1.408       .  A
C1858     Br1863   1.925       .  S
C1859      C1860   1.411       .  A
C1860     Br1861   1.930       .  S
C1865      C1866   1.417       .  A
C1865      C1870   1.407       .  A
C1865     Br1872   1.932       .  S
C1866      C1867   1.421       .  A
C1867      C1868   1.410       .  A
C1867     Br1874   1.927       .  S
C1868      C1869   1.411       .  A
C1869      C1870   1.413       .  A
C1870     Br1871   1.938       .  S
C1875      C1876   1.432       .  A
C1875      C1880   1.400       .  A
C1875     Br1882   1.917       .  S
C1876      C1877   1.426       .  A
C1877      C1878   1.426       .  A
C1877     Br1884   1.924       .  S
C1878      C1879   1.416       .  A
C1878     Br1883   1.920       .  S
C1879      C1880   1.405       .  A
C1880     Br1881   1.936       .  S
C1885      C1886   1.424       .  A
C1885      C1890   1.424       .  A
C1885     Br1892   1.929       .  S
C1886      C1887   1.444       .  A
C1887      C1888   1.413       .  A
C1887     Br1894   1.943       .  S
C1888      C1889   1.411       .  A
C1888     Br1893   1.938       .  S
C1889      C1890   1.421       .  A
C1890     Br1891   1.929       .  S
C1895      C1896   1.418       .  A
C1895      C1900   1.408       .  A
C1895     Br1902   1.910       .  S
C1896      C1897   1.413       .  A
C1897      C1898   1.411       .  A
C1897     Br1904   1.919       .  S
C1898      C1899   1.415       .  A
C1899      C1900   1.407       .  A
C1900     Br1901   1.929       .  S
C1905      C1906   1.415       .  A
C1905      C1910   1.407       .  A
C1905     Br1912   1.910       .  S
C1906      C1907   1.418       .  A
C1907      C1908   1.414       .  A
C1907     Br1914   1.915       .  S
C1908      C1909   1.423       .  A
C1908     Br1913   1.940       .  S
C1909      C1910   1.413       .  A
C1910     Br1911   1.928       .  S
C1915      C1916   1.409       .  A
C1915      C1920   1.415       .  A
C1915     Br1922   1.934       .  S
C1916      C1917   1.410       .  A
C1917      C1918   1.409       .  A
C1917     Br1924   1.936       .  S
C1918      C1919   1.421       .  A
C1918     Br1923   1.933       .  S
C1919      C1920   1.424       .  A
C1920     Br2629   1.918   1_554  S
Br1921     C2628   1.917       .  S
C1925      C1926   1.412       .  A
C1925      C1930   1.413       .  A
C1925     Br1932   1.922       .  S
C1926      C1927   1.404       .  A
C1927      C1928   1.413       .  A
C1927     Br1934   1.917       .  S
C1928      C1929   1.432       .  A
C1928     Br1933   1.919       .  S
C1929      C1930   1.426       .  A
C1930     Br1931   1.938       .  S
C1935      C1936   1.417       .  A
C1935      C1940   1.419       .  A
C1935     Br2650   1.922       .  S
C1936      C1937   1.420       .  A
C1937      C1938   1.415       .  A
C1937     Br1944   1.927       .  S
C1938      C1939   1.407       .  A
C1938     Br1943   1.919       .  S
C1939      C1940   1.415       .  A
C1940     Br1941   1.928       .  S
Br1942     C2643   1.924       .  S
C1945      C1946   1.409       .  A
C1945      C1950   1.416       .  A
C1945     Br1952   1.937       .  S
C1946      C1947   1.408       .  A
C1947      C1948   1.413       .  A
C1947     Br1954   1.931       .  S
C1948      C1949   1.422       .  A
C1948     Br1953   1.926       .  S
C1949      C1950   1.427       .  A
C1950     Br1951   1.921       .  S
C1955      C1956   1.411       .  A
C1955      C1960   1.410       .  A
C1955     Br1962   1.939       .  S
C1956      C1957   1.411       .  A
C1957      C1958   1.417       .  A
C1957     Br1964   1.928       .  S
C1958      C1959   1.423       .  A
C1958     Br2671   1.934       .  S
C1959      C1960   1.433       .  A
C1960     Br1961   1.939       .  S
Br1963     C2666   1.933   1_554  S
C1965      C1966   1.406       .  A
C1965      C1970   1.408       .  A
C1965     Br1972   1.938       .  S
C1966      C1967   1.403       .  A
C1967      C1968   1.409       .  A
C1967     Br1974   1.928       .  S
C1968      C1969   1.419       .  A
C1968     Br2681   1.926       .  S
C1969      C1970   1.424       .  A
C1970     Br1971   1.921       .  S
Br1973     C2676   1.925       .  S
C1975      C1976   1.419       .  A
C1975      C1980   1.410       .  A
C1975     Br2690   1.925       .  S
C1976      C1977   1.418       .  A
C1977      C1978   1.413       .  A
C1977     Br1984   1.933       .  S
C1978      C1979   1.414       .  A
C1978     Br1983   1.935       .  S
C1979      C1980   1.413       .  A
C1980     Br1981   1.938       .  S
Br1982     C2683   1.925   1_554  S
C1985      C1986   1.417       .  A
C1985      C1990   1.401       .  A
C1985     Br1992   1.935       .  S
C1986      C1987   1.433       .  A
C1987      C1988   1.420       .  A
C1987     Br2702   1.924       .  S
C1988      C1989   1.406       .  A
C1988     Br1993   1.932       .  S
C1989      C1990   1.408       .  A
C1990     Br1991   1.914       .  S
Br1994     C2695   1.924   1_554  S
C1995      C1996   1.428       .  A
C1995      C2000   1.410       .  A
C1995     Br2002   1.918       .  S
C1996      C1997   1.425       .  A
C1997      C1998   1.408       .  A
C1997     Br2712   1.917       .  S
C1998      C1999   1.406       .  A
C1998     Br2003   1.929       .  S
C1999      C2000   1.418       .  A
C2000     Br2001   1.948       .  S
Br2004     C2705   1.919       .  S
C2005      C2006   1.416       .  A
C2005      C2010   1.413       .  A
C2005     Br2012   1.931       .  S
C2006      C2007   1.404       .  A
C2007      C2008   1.404       .  A
C2007     Br2014   1.911       .  S
C2008      C2009   1.410       .  A
C2008     Br2013   1.927       .  S
C2009      C2010   1.418       .  A
C2010     Br2011   1.931       .  S
C2015      C2016   1.413       .  A
C2015      C2020   1.418       .  A
C2015     Br2022   1.930       .  S
C2016      C2017   1.411       .  A
C2017      C2018   1.411       .  A
C2018      C2019   1.419       .  A
C2018     Br2023   1.912       .  S
C2019      C2020   1.418       .  A
C2020     Br2021   1.926       .  S
C2025      C2026   1.415       .  A
C2025      C2030   1.412       .  A
C2025     Br2032   1.915       .  S
C2026      C2027   1.424       .  A
C2027      C2028   1.406       .  A
C2027     Br2034   1.910       .  S
C2028      C2029   1.409       .  A
C2028     Br2033   1.934       .  S
C2029      C2030   1.426       .  A
C2035      C2036   1.428       .  A
C2035      C2040   1.420       .  A
C2035     Br2042   1.918       .  S
C2036      C2037   1.416       .  A
C2037      C2038   1.409       .  A
C2037     Br2044   1.910       .  S
C2038      C2039   1.409       .  A
C2039      C2040   1.412       .  A
C2040     Br2041   1.934       .  S
C2045      C2046   1.425       .  A
C2045      C2050   1.424       .  A
C2045     Br2052   1.928       .  S
C2046      C2047   1.409       .  A
C2047      C2048   1.397       .  A
C2047     Br2054   1.941       .  S
C2048      C2049   1.415       .  A
C2048     Br2053   1.922       .  S
C2049      C2050   1.411       .  A
C2050     Br2051   1.927       .  S
C2055      C2056   1.414       .  A
C2055      C2060   1.411       .  A
C2055     Br2062   1.929       .  S
C2056      C2057   1.410       .  A
C2057      C2058   1.414       .  A
C2057     Br2064   1.925       .  S
C2058      C2059   1.420       .  A
C2058     Br2063   1.928       .  S
C2059      C2060   1.417       .  A
C2060     Br2061   1.916       .  S
C2065      C2066   1.425       .  A
C2065      C2070   1.410       .  A
C2065     Br2072   1.916       .  S
C2066      C2067   1.421       .  A
C2067      C2068   1.423       .  A
C2067     Br2074   1.939       .  S
C2068      C2069   1.440       .  A
C2068     Br2073   1.938       .  S
C2069      C2070   1.414       .  A
C2070     Br2071   1.931       .  S
C2075      C2076   1.416       .  A
C2075      C2080   1.428       .  A
C2075     Br2082   1.925       .  S
C2076      C2077   1.419       .  A
C2077      C2078   1.386       .  A
C2077     Br2084   1.923       .  S
C2078      C2079   1.422       .  A
C2078     Br2083   1.944       .  S
C2079      C2080   1.427       .  A
C2080     Br2081   1.921       .  S
C2085      C2086   1.409       .  A
C2085      C2090   1.393       .  A
C2085     Br2092   1.928       .  S
C2086      C2087   1.429       .  A
C2087      C2088   1.430       .  A
C2087     Br2094   1.930       .  S
C2088      C2089   1.429       .  A
C2088     Br2093   1.925       .  S
C2089      C2090   1.401       .  A
C2090     Br2799   1.923   1_554  S
Br2091     C2798   1.923       .  S
C2095      C2096   1.406       .  A
C2095      C2100   1.409       .  A
C2095     Br2102   1.922       .  S
C2096      C2097   1.401       .  A
C2097      C2098   1.414       .  A
C2097     Br2104   1.905       .  S
C2098      C2099   1.412       .  A
C2098     Br2103   1.918       .  S
C2099      C2100   1.423       .  A
C2100     Br2101   1.932       .  S
C2105      C2106   1.403       .  A
C2105      C2110   1.404       .  A
C2105     Br2112   1.931       .  S
C2106      C2107   1.420       .  A
C2107      C2108   1.427       .  A
C2107     Br2114   1.927       .  S
C2108      C2109   1.422       .  A
C2108     Br2113   1.925       .  S
C2109      C2110   1.425       .  A
C2110     Br2111   1.920       .  S
C2115      C2116   1.425       .  A
C2115      C2120   1.424       .  A
C2115     Br2122   1.929       .  S
C2116      C2117   1.425       .  A
C2117      C2118   1.404       .  A
C2117     Br2124   1.937       .  S
C2118      C2119   1.409       .  A
C2118     Br2123   1.911   1_554  S
C2119      C2120   1.419       .  A
C2120     Br2121   1.930       .  S
C2125      C2126   1.538       .  S
C2125      C2131   1.540       .  S
C2125      C2129   1.556       .  S
C2125      C2824   1.565       .  S
C2126      H2133   1.080       .  S
C2126      C2127   1.367       .  D
C2127      C2128   1.545       .  S
C2127      C2794   1.521       .  S
C2128      C2132   1.545       .  S
C2128      C2130   1.551       .  S
C2128      H2134   1.100       .  S
C2129      H2135   1.081       .  S
C2129      C2130   1.373       .  D
C2130      C2814   1.514       .  S
C2131      H2136   1.086       .  S
C2131      C2132   1.366       .  D
C2132      C2804   1.498       .  S
C2137      C2138   1.530       .  S
C2137      C2143   1.546       .  S
C2137      C2141   1.558       .  S
C2137      C2787   1.564       .  S
C2138      H2145   1.083       .  S
C2138      C2139   1.347       .  D
C2139      C2140   1.555       .  S
C2139      C2754   1.494       .  S
C2140      C2144   1.526       .  S
C2140      C2142   1.553       .  S
C2140      H2146   1.091       .  S
C2141      H2147   1.082       .  S
C2141      C2142   1.394       .  D
C2142      C2774   1.535       .  S
C2143      H2148   1.086       .  S
C2143      C2144   1.366       .  D
C2144      C2764   1.511       .  S
C2149      C2155   1.550       .  S
C2149      C2154   1.550       .  S
C2149      C2153   1.570       .  S
C2149      H2150   1.087       .  S
C2151      C2157   1.572       .  S
C2151      C2156   1.543       .  S
C2151      C2158   1.558       .  S
C2151      H2152   1.087       .  S
C2153      C2156   1.378       .  D
C2153      C2744   1.532       .  S
C2154      C2157   1.412       .  D
C2154      C2817   1.537       .  S
C2155      C2158   1.389       .  D
C2155      C2714   1.532       .  S
C2156      C2734   1.523       .  S
C2157      C2777   1.551       .  S
C2158      C2727   1.522       .  S
C2159      C2165   1.543       .  S
C2159      C2164   1.567       .  S
C2159      C2163   1.568       .  S
C2159      H2160   1.101       .  S
C2161      C2167   1.546       .  S
C2161      C2166   1.558       .  S
C2161      C2168   1.545       .  S
C2161      H2162   1.086       .  S
C2163      C2704   1.528       .  S
C2164      C2827   1.519       .  S
C2165      C2677   1.519       .  S
C2166      C2694   1.522       .  S
C2167      C2784   1.539       .  S
C2168      C2684   1.520       .  S
O2169      C2172   1.262       .  A
C2170      O2175   1.265       .  A
C2170      C2687   1.499       .  S
O2171      C2177   1.265       .  A
O2171     Cd2174   2.476       .  S
C2172      C2654   1.481       .  S
C2173      O2178   1.264       .  A
C2173      C2664   1.493       .  S
Cd2174     O2180   2.490   1_665  S
Cd2174     O2179   2.484   1_565  S
Cd2174     O2178   2.489   1_655  S
C2177      C2724   1.498       .  S
C2182      C2188   1.563       .  S
C2182      C2187   1.578       .  S
C2182      C2186   1.542       .  S
C2182      H2183   1.080       .  S
C2184      C2190   1.542       .  S
C2184      C2189   1.567       .  S
C2184      C2191   1.565       .  S
C2184      H2185   1.090       .  S
C2186      C2604   1.517       .  S
C2187      C2644   1.555       .  S
C2188      C2627   1.551       .  S
C2189      C2614   1.532       .  S
C2190      C2634   1.515       .  S
C2191      C2667   1.543       .  S
C2192      C2198   1.551       .  S
C2192      C2197   1.557       .  S
C2192      C2196   1.558       .  S
C2192      H2193   1.101       .  S
C2194      C2200   1.562       .  S
C2194      C2199   1.567       .  S
C2194      C2201   1.544       .  S
C2194      H2195   1.105       .  S
C2196      C2199   1.387       .  D
C2196      C2564   1.525       .  S
C2197      C2200   1.396       .  D
C2197      C2584   1.539       .  S
C2198      C2201   1.376       .  D
C2198      C2574   1.509       .  S
C2199      C2557   1.528       .  S
C2200      C2597   1.526       .  S
C2201      C2657   1.521       .  S
C2202      C2203   1.530       .  S
C2202      C2208   1.537       .  S
C2202      C2206   1.568       .  S
C2202      C2594   1.576       .  S
C2203      H2210   1.084       .  S
C2203      C2204   1.357       .  D
C2204      C2205   1.552       .  S
C2204      C2537   1.504       .  S
C2205      C2209   1.518       .  S
C2205      C2207   1.559       .  S
C2205      H2211   1.094       .  S
C2206      H2212   1.074       .  S
C2206      C2207   1.398       .  D
C2207      C2637   1.541       .  S
C2208      H2213   1.087       .  S
C2208      C2209   1.351       .  D
C2209      C2544   1.476       .  S
C2214      C2215   1.547       .  S
C2214      C2220   1.539       .  S
C2214      C2218   1.530       .  S
C2214      C2587   1.560       .  S
C2215      H2222   1.086       .  S
C2215      C2216   1.376       .  D
C2216      C2217   1.560       .  S
C2216      C2517   1.529       .  S
C2217      C2221   1.564       .  S
C2217      C2219   1.565       .  S
C2217      H2223   1.102       .  S
C2218      H2224   1.086       .  S
C2218      C2219   1.368       .  D
C2219      C2647   1.509       .  S
C2220      H2225   1.076       .  S
C2220      C2221   1.364       .  D
C2221      C2524   1.529       .  S
O2226      C2229   1.264       .  A
C2227      O2232   1.263       .  A
C2227      C2577   1.482       .  S
O2228      C2234   1.262       .  A
O2228     Cd2231   2.464       .  S
C2229      C2674   1.480       .  S
C2230      O2235   1.265       .  A
C2230      C2624   1.483       .  S
Cd2231     O2237   2.477   1_565  S
Cd2231     O2236   2.469   1_655  S
Cd2231     O2235   2.469   1_655  S
C2234      C2717   1.483       .  S
C2239      C2245   1.535       .  S
C2239      C2244   1.571       .  S
C2239      C2243   1.561       .  S
C2239      H2240   1.098       .  S
C2241      C2247   1.556       .  S
C2241      C2246   1.540       .  S
C2241      C2248   1.570       .  S
C2241      H2242   1.074       .  S
C2243      C2246   1.379       .  D
C2243      C2547   1.502       .  S
C2244      C2247   1.422       .  D
C2244      C2494   1.561       .  S
C2245      C2248   1.377       .  D
C2245      C2487   1.524       .  S
C2246      C2514   1.547       .  S
C2247      C2504   1.546       .  S
C2248      C2477   1.513       .  S
C2249      C2255   1.543       .  S
C2249      C2254   1.565       .  S
C2249      C2253   1.542       .  S
C2249      H2250   1.086       .  S
C2251      C2257   1.558       .  S
C2251      C2256   1.576       .  S
C2251      C2258   1.543       .  S
C2251      H2252   1.100       .  S
C2253      C2534   1.543       .  S
C2254      C2454   1.512       .  S
C2255      C2437   1.525       .  S
C2256      C2527   1.548       .  S
C2257      C2464   1.541       .  S
C2258      C2444   1.508       .  S
C2259      C2260   1.527       .  S
C2259      C2265   1.545       .  S
C2259      C2263   1.562       .  S
C2259      C2457   1.566       .  S
C2260      H2267   1.085       .  S
C2261      C2262   1.550       .  S
C2261      C2617   1.515       .  S
C2262      C2264   1.548       .  S
C2262      H2268   1.097       .  S
C2263      H2269   1.081       .  S
C2264      C2497   1.512       .  S
C2265      H2270   1.086       .  S
C2265      C2266   1.371       .  D
C2266      C2554   1.529       .  S
C2271      C2272   1.546       .  S
C2271      C2277   1.552       .  S
C2271      C2275   1.528       .  S
C2271      C2467   1.546       .  S
C2272      H2279   1.086       .  S
C2272      C2273   1.375       .  D
C2273      C2567   1.505       .  S
C2274      C2278   1.536       .  S
C2274      C2276   1.549       .  S
C2274      H2280   1.107       .  S
C2275      H2281   1.086       .  S
C2276      C2507   1.502       .  S
C2277      H2282   1.081       .  S
C2278      C2607   1.501       .  S
O2283      C2286   1.266       .  A
O2283     Cd2288   2.461       .  S
C2284      O2293   1.264       .  A
C2284      O2289   1.263       .  A
C2284      C2414   1.473       .  S
O2285      C2291   1.266       .  A
O2285     Cd2288   2.483       .  S
C2286      O2294   1.265       .  A
C2286      C2434   1.482       .  S
C2287      O2292   1.264       .  A
C2287      O2290   1.264       .  A
C2287      C2424   1.487       .  S
Cd2288     O2295   2.462       .  S
Cd2288     O2294   2.461       .  S
Cd2288     O2293   2.479       .  S
Cd2288     O2289   2.461       .  S
Cd2288     O2292   2.479       .  S
Cd2288     O2290   2.494       .  S
C2291      O2295   1.265       .  A
C2291      C2484   1.480       .  S
C2296      C2297   1.543       .  S
C2296      C2302   1.551       .  S
C2296      C2300   1.531       .  S
C2296      C2394   1.548       .  S
C2297      H2304   1.072       .  S
C2298      C2299   1.550       .  S
C2298      C2737   1.515       .  S
C2299      C2301   1.550       .  S
C2299      H2305   1.099       .  S
C2301      C2407   1.490       .  S
C2302      H2307   1.085       .  S
C2302      C2303   1.376       .  D
C2303      C2697   1.504       .  S
C2308      C2314   1.550       .  S
C2308      C2313   1.540       .  S
C2308      C2312   1.554       .  S
C2308      H2309   1.093       .  S
C2310      C2316   1.560       .  S
C2310      C2315   1.569       .  S
C2310      C2317   1.524       .  S
C2310      H2311   1.094       .  S
C2312      C2315   1.408       .  D
C2312      C2757   1.540       .  S
C2313      C2316   1.387       .  D
C2313      C2397   1.506       .  S
C2314      C2317   1.369       .  D
C2314      C2417   1.510       .  S
C2315      C2807   1.545       .  S
C2316      C2387   1.532       .  S
C2317      C2374   1.495       .  S
C2318      C2319   1.542       .  S
C2318      C2324   1.545       .  S
C2318      C2322   1.543       .  S
C2318      C2384   1.563       .  S
C2319      H2326   1.078       .  S
C2319      C2320   1.351       .  D
C2320      C2707   1.495       .  S
C2321      C2325   1.551       .  S
C2321      C2323   1.557       .  S
C2321      H2327   1.106       .  S
C2323      C2367   1.519       .  S
C2324      H2329   1.084       .  S
C2325      C2747   1.511       .  S
C2330      C2336   1.557       .  S
C2330      C2335   1.535       .  S
C2330      C2334   1.557       .  S
C2330      H2331   1.083       .  S
C2332      C2338   1.571       .  S
C2332      C2337   1.554       .  S
C2332      C2339   1.551       .  S
C2332      H2333   1.102       .  S
C2334      C2767   1.518       .  S
C2335      C2404   1.530       .  S
C2336      C2427   1.540       .  S
C2337      C2797   1.540       .  S
C2338      C2364   1.530       .  S
C2339      C2354   1.522       .  S
O2340      C2343   1.262       .  A
O2340     Cd2345   2.443       .  S
C2341      O2350   1.263       .  A
C2341      O2346   1.266       .  A
C2341      C2377   1.473       .  S
O2342      C2348   1.264       .  A
O2342     Cd2345   2.476       .  S
C2343      O2351   1.266       .  A
C2343      C2447   1.470       .  S
C2344      O2349   1.266       .  A
C2344      O2347   1.264       .  A
C2344      C2474   1.480       .  S
Cd2345     O2352   2.495       .  S
Cd2345     O2351   2.466       .  S
Cd2345     O2350   2.421       .  S
Cd2345     O2346   2.476       .  S
Cd2345     O2349   2.485       .  S
Cd2345     O2347   2.446       .  S
C2348      O2352   1.266       .  A
C2348      C2357   1.492       .  S
C2353      C2354   1.421       .  A
C2353      C2358   1.415       .  A
C2354      C2355   1.418       .  A
C2355      C2356   1.410       .  A
C2355     Br2362   1.916       .  S
C2356      C2357   1.410       .  A
C2356     Br2361   1.937       .  S
C2357      C2358   1.411       .  A
C2358     Br2359   1.933       .  S
C2363      C2364   1.418       .  A
C2363      C2368   1.413       .  A
C2364      C2365   1.422       .  A
C2365      C2366   1.420       .  A
C2365     Br2372   1.917       .  S
C2366      C2367   1.415       .  A
C2366     Br2371   1.931       .  S
C2367      C2368   1.416       .  A
C2373      C2374   1.416       .  A
C2373      C2378   1.410       .  A
C2373     Br2380   1.929       .  S
C2374      C2375   1.412       .  A
C2375      C2376   1.402       .  A
C2375     Br2382   1.921       .  S
C2376      C2377   1.408       .  A
C2376     Br2381   1.939       .  S
C2377      C2378   1.409       .  A
C2378     Br2379   1.931       .  S
C2383      C2384   1.417       .  A
C2383      C2388   1.434       .  A
C2383     Br2390   1.922       .  S
C2384      C2385   1.402       .  A
C2385      C2386   1.389       .  A
C2385     Br2392   1.930       .  S
C2386      C2387   1.417       .  A
C2386     Br2391   1.913       .  S
C2387      C2388   1.431       .  A
C2388     Br2389   1.926       .  S
C2393      C2394   1.419       .  A
C2393      C2398   1.422       .  A
C2393     Br2400   1.928       .  S
C2394      C2395   1.406       .  A
C2395      C2396   1.386       .  A
C2395     Br2402   1.922       .  S
C2396      C2397   1.409       .  A
C2396     Br2401   1.919       .  S
C2397      C2398   1.426       .  A
C2398     Br2399   1.930       .  S
C2403      C2404   1.437       .  A
C2403      C2408   1.412       .  A
C2403     Br2410   1.912       .  S
C2404      C2405   1.409       .  A
C2405      C2406   1.407       .  A
C2406      C2407   1.409       .  A
C2407      C2408   1.397       .  A
C2408     Br2409   1.936       .  S
C2413      C2414   1.405       .  A
C2413      C2418   1.413       .  A
C2413     Br2420   1.928       .  S
C2414      C2415   1.401       .  A
C2415      C2416   1.404       .  A
C2415     Br2422   1.935       .  S
C2416      C2417   1.419       .  A
C2416     Br2421   1.913       .  S
C2417      C2418   1.419       .  A
C2418     Br2419   1.924       .  S
C2423      C2424   1.410       .  A
C2423      C2428   1.410       .  A
C2423     Br2430   1.928       .  S
C2424      C2425   1.413       .  A
C2425      C2426   1.412       .  A
C2425     Br2432   1.933       .  S
C2426      C2427   1.424       .  A
C2426     Br2431   1.934       .  S
C2427      C2428   1.413       .  A
C2433      C2434   1.404       .  A
C2433      C2438   1.408       .  A
C2433     Br2440   1.942       .  S
C2434      C2435   1.406       .  A
C2435      C2436   1.414       .  A
C2435     Br2442   1.934       .  S
C2436      C2437   1.421       .  A
C2436     Br2441   1.917       .  S
C2437      C2438   1.422       .  A
C2443      C2444   1.416       .  A
C2443      C2448   1.407       .  A
C2443     Br2450   1.927       .  S
C2444      C2445   1.422       .  A
C2445      C2446   1.407       .  A
C2445     Br2452   1.921       .  S
C2446      C2447   1.406       .  A
C2446     Br2451   1.939       .  S
C2447      C2448   1.404       .  A
C2448     Br2449   1.929       .  S
C2453      C2454   1.413       .  A
C2453      C2458   1.403       .  A
C2453     Br2460   1.943       .  S
C2454      C2455   1.417       .  A
C2455      C2456   1.429       .  A
C2455     Br2462   1.930       .  S
C2456      C2457   1.428       .  A
C2456     Br2461   1.927       .  S
C2457      C2458   1.425       .  A
C2458     Br2459   1.934       .  S
C2463      C2464   1.420       .  A
C2463      C2468   1.382       .  A
C2464      C2465   1.438       .  A
C2465      C2466   1.428       .  A
C2465     Br2472   1.923       .  S
C2466      C2467   1.415       .  A
C2466     Br2471   1.920       .  S
C2467      C2468   1.397       .  A
C2468     Br2469   1.919       .  S
C2473      C2474   1.408       .  A
C2473      C2478   1.408       .  A
C2473     Br2480   1.940       .  S
C2474      C2475   1.404       .  A
C2475      C2476   1.412       .  A
C2475     Br2482   1.930       .  S
C2476      C2477   1.422       .  A
C2476     Br2481   1.929       .  S
C2477      C2478   1.420       .  A
C2478     Br2479   1.921       .  S
C2483      C2484   1.405       .  A
C2483      C2488   1.411       .  A
C2483     Br2490   1.930       .  S
C2484      C2485   1.406       .  A
C2485      C2486   1.410       .  A
C2485     Br2492   1.939       .  S
C2486      C2487   1.423       .  A
C2486     Br2491   1.912       .  S
C2487      C2488   1.417       .  A
C2488     Br2489   1.916       .  S
C2493      C2494   1.422       .  A
C2493      C2498   1.430       .  A
C2493     Br2500   1.925       .  S
C2494      C2495   1.425       .  A
C2495      C2496   1.406       .  A
C2495     Br2502   1.931       .  S
C2496      C2497   1.402       .  A
C2496     Br2501   1.917       .  S
C2497      C2498   1.417       .  A
C2498     Br2499   1.924   1_565  S
C2503      C2504   1.447       .  A
C2503      C2508   1.417       .  A
C2503     Br2510   1.944       .  S
C2504      C2505   1.421       .  A
C2505      C2506   1.412       .  A
C2505     Br2512   1.916       .  S
C2506      C2507   1.408       .  A
C2506     Br2511   1.923       .  S
C2507      C2508   1.410       .  A
C2508     Br2509   1.951       .  S
C2513      C2514   1.424       .  A
C2513      C2518   1.419       .  A
C2513     Br2520   1.917       .  S
C2514      C2515   1.427       .  A
C2515      C2516   1.424       .  A
C2515     Br2522   1.932       .  S
C2516      C2517   1.418       .  A
C2516     Br2521   1.923       .  S
C2517      C2518   1.416       .  A
C2518     Br2519   1.930       .  S
C2523      C2524   1.413       .  A
C2523      C2528   1.424       .  A
C2523     Br2530   1.916       .  S
C2524      C2525   1.413       .  A
C2525      C2526   1.406       .  A
C2525     Br2532   1.944       .  S
C2526      C2527   1.424       .  A
C2526     Br2531   1.905       .  S
C2527      C2528   1.428       .  A
C2533      C2534   1.456       .  A
C2533      C2538   1.431       .  A
C2533     Br2540   1.938       .  S
C2534      C2535   1.392       .  A
C2535      C2536   1.395       .  A
C2536      C2537   1.395       .  A
C2536     Br2541   1.918       .  S
C2537      C2538   1.422       .  A
C2538     Br2539   1.939       .  S
C2543      C2544   1.395       .  A
C2543      C2548   1.393       .  A
C2543     Br2550   1.917       .  S
C2544      C2545   1.401       .  A
C2545      C2546   1.412       .  A
C2545     Br2552   1.927       .  S
C2546      C2547   1.426       .  A
C2546     Br2551   1.921       .  S
C2547      C2548   1.415       .  A
C2548     Br2549   1.917       .  S
C2553      C2554   1.411       .  A
C2553      C2558   1.392       .  A
C2553     Br2560   1.906       .  S
C2554      C2555   1.416       .  A
C2555      C2556   1.422       .  A
C2556      C2557   1.427       .  A
C2556     Br2561   1.921       .  S
C2557      C2558   1.412       .  A
C2558     Br2559   1.915       .  S
C2563      C2564   1.423       .  A
C2563      C2568   1.411       .  A
C2563     Br2570   1.923       .  S
C2564      C2565   1.425       .  A
C2565      C2566   1.414       .  A
C2565     Br2572   1.925       .  S
C2566      C2567   1.410       .  A
C2566     Br2571   1.927       .  S
C2567      C2568   1.411       .  A
C2568     Br2569   1.930       .  S
C2573      C2574   1.417       .  A
C2573      C2578   1.408       .  A
C2573     Br2580   1.931       .  S
C2574      C2575   1.422       .  A
C2575      C2576   1.409       .  A
C2575     Br2582   1.927       .  S
C2576      C2577   1.408       .  A
C2577      C2578   1.412       .  A
C2578     Br2579   1.937       .  S
C2583      C2584   1.430       .  A
C2583      C2588   1.399       .  A
C2583     Br2590   1.917       .  S
C2584      C2585   1.426       .  A
C2585      C2586   1.427       .  A
C2585     Br2592   1.924       .  S
C2586      C2587   1.416       .  A
C2586     Br2591   1.922       .  S
C2587      C2588   1.405       .  A
C2588     Br2589   1.937       .  S
C2593      C2594   1.425       .  A
C2593      C2598   1.424       .  A
C2593     Br2600   1.930       .  S
C2594      C2595   1.446       .  A
C2595      C2596   1.414       .  A
C2595     Br2602   1.944       .  S
C2596      C2597   1.410       .  A
C2596     Br2601   1.938       .  S
C2597      C2598   1.421       .  A
C2598     Br2599   1.926       .  S
C2603      C2604   1.416       .  A
C2603      C2608   1.409       .  A
C2603     Br2610   1.913       .  S
C2604      C2605   1.414       .  A
C2605      C2606   1.412       .  A
C2605     Br2612   1.917       .  S
C2606      C2607   1.416       .  A
C2607      C2608   1.410       .  A
C2608     Br2609   1.926       .  S
C2613      C2614   1.416       .  A
C2613      C2618   1.410       .  A
C2613     Br2620   1.908       .  S
C2614      C2615   1.421       .  A
C2615      C2616   1.417       .  A
C2615     Br2622   1.915       .  S
C2616      C2617   1.422       .  A
C2616     Br2621   1.938       .  S
C2617      C2618   1.413       .  A
C2618     Br2619   1.927       .  S
C2623      C2624   1.405       .  A
C2623      C2628   1.411       .  A
C2623     Br2630   1.934       .  S
C2624      C2625   1.409       .  A
C2625      C2626   1.410       .  A
C2625     Br2632   1.936       .  S
C2626      C2627   1.425       .  A
C2626     Br2631   1.934       .  S
C2627      C2628   1.425       .  A
C2633      C2634   1.411       .  A
C2633      C2638   1.416       .  A
C2633     Br2640   1.925       .  S
C2634      C2635   1.401       .  A
C2635      C2636   1.413       .  A
C2635     Br2642   1.913   1_556  S
C2636      C2637   1.433       .  A
C2636     Br2641   1.916       .  S
C2637      C2638   1.430       .  A
C2638     Br2639   1.935       .  S
C2643      C2644   1.418       .  A
C2643      C2648   1.420       .  A
C2644      C2645   1.417       .  A
C2645      C2646   1.417       .  A
C2645     Br2652   1.927       .  S
C2646      C2647   1.411       .  A
C2646     Br2651   1.918       .  S
C2647      C2648   1.415       .  A
C2648     Br2649   1.928       .  S
C2653      C2654   1.403       .  A
C2653      C2658   1.408       .  A
C2653     Br2660   1.936       .  S
C2654      C2655   1.405       .  A
C2655      C2656   1.413       .  A
C2655     Br2662   1.929       .  S
C2656      C2657   1.423       .  A
C2656     Br2661   1.927       .  S
C2657      C2658   1.424       .  A
C2658     Br2659   1.919       .  S
C2663      C2664   1.410       .  A
C2663      C2668   1.411       .  A
C2663     Br2670   1.937       .  S
C2664      C2665   1.411       .  A
C2665      C2666   1.417       .  A
C2665     Br2672   1.928       .  S
C2666      C2667   1.422       .  A
C2667      C2668   1.433       .  A
C2668     Br2669   1.939       .  S
C2673      C2674   1.406       .  A
C2673      C2678   1.409       .  A
C2673     Br2680   1.937       .  S
C2674      C2675   1.404       .  A
C2675      C2676   1.412       .  A
C2675     Br2682   1.929       .  S
C2676      C2677   1.420       .  A
C2677      C2678   1.423       .  A
C2678     Br2679   1.918       .  S
C2683      C2684   1.421       .  A
C2683      C2688   1.413       .  A
C2684      C2685   1.420       .  A
C2685      C2686   1.415       .  A
C2685     Br2692   1.933       .  S
C2686      C2687   1.416       .  A
C2686     Br2691   1.936       .  S
C2687      C2688   1.413       .  A
C2688     Br2689   1.936       .  S
C2693      C2694   1.415       .  A
C2693      C2698   1.401       .  A
C2693     Br2700   1.936       .  S
C2694      C2695   1.432       .  A
C2695      C2696   1.419       .  A
C2696      C2697   1.409       .  A
C2696     Br2701   1.934       .  S
C2697      C2698   1.410       .  A
C2698     Br2699   1.915       .  S
C2703      C2704   1.428       .  A
C2703      C2708   1.405       .  A
C2703     Br2710   1.918       .  S
C2704      C2705   1.427       .  A
C2705      C2706   1.407       .  A
C2706      C2707   1.404       .  A
C2706     Br2711   1.929       .  S
C2707      C2708   1.412       .  A
C2708     Br2709   1.946       .  S
C2713      C2714   1.419       .  A
C2713      C2718   1.415       .  A
C2713     Br2720   1.933       .  S
C2714      C2715   1.402       .  A
C2715      C2716   1.402       .  A
C2715     Br2722   1.911       .  S
C2716      C2717   1.408       .  A
C2716     Br2721   1.926       .  S
C2717      C2718   1.417       .  A
C2718     Br2719   1.932       .  S
C2723      C2724   1.414       .  A
C2723      C2728   1.419       .  A
C2723     Br2730   1.930       .  S
C2724      C2725   1.410       .  A
C2725      C2726   1.409       .  A
C2726      C2727   1.416       .  A
C2726     Br2731   1.911       .  S
C2727      C2728   1.418       .  A
C2728     Br2729   1.926       .  S
C2733      C2734   1.416       .  A
C2733      C2738   1.412       .  A
C2733     Br2740   1.913       .  S
C2734      C2735   1.423       .  A
C2735      C2736   1.402       .  A
C2735     Br2742   1.909       .  S
C2736      C2737   1.406       .  A
C2736     Br2741   1.933       .  S
C2737      C2738   1.424       .  A
C2743      C2744   1.426       .  A
C2743      C2748   1.420       .  A
C2743     Br2750   1.919       .  S
C2744      C2745   1.417       .  A
C2745      C2746   1.411       .  A
C2745     Br2752   1.912       .  S
C2746      C2747   1.409       .  A
C2747      C2748   1.412       .  A
C2748     Br2749   1.933       .  S
C2753      C2754   1.426       .  A
C2753      C2758   1.425       .  A
C2753     Br2760   1.929       .  S
C2754      C2755   1.408       .  A
C2755      C2756   1.399       .  A
C2755     Br2762   1.941       .  S
C2756      C2757   1.418       .  A
C2756     Br2761   1.926       .  S
C2757      C2758   1.414       .  A
C2758     Br2759   1.928       .  S
C2763      C2764   1.416       .  A
C2763      C2768   1.412       .  A
C2763     Br2770   1.932       .  S
C2764      C2765   1.413       .  A
C2765      C2766   1.416       .  A
C2765     Br2772   1.925       .  S
C2766      C2767   1.420       .  A
C2766     Br2771   1.932       .  S
C2767      C2768   1.417       .  A
C2768     Br2769   1.915       .  S
C2773      C2774   1.423       .  A
C2773      C2778   1.410       .  A
C2773     Br2780   1.911       .  S
C2774      C2775   1.419       .  A
C2775      C2776   1.426       .  A
C2775     Br2782   1.938       .  S
C2776      C2777   1.443       .  A
C2776     Br2781   1.938       .  S
C2777      C2778   1.414       .  A
C2778     Br2779   1.934       .  S
C2783      C2784   1.419       .  A
C2783      C2788   1.431       .  A
C2783     Br2790   1.926       .  S
C2784      C2785   1.420       .  A
C2785      C2786   1.388       .  A
C2785     Br2792   1.923       .  S
C2786      C2787   1.422       .  A
C2786     Br2791   1.944       .  S
C2787      C2788   1.427       .  A
C2788     Br2789   1.921       .  S
C2793      C2794   1.414       .  A
C2793      C2798   1.393       .  A
C2793     Br2800   1.928       .  S
C2794      C2795   1.429       .  A
C2795      C2796   1.426       .  A
C2795     Br2802   1.930       .  S
C2796      C2797   1.425       .  A
C2796     Br2801   1.923       .  S
C2797      C2798   1.399       .  A
C2803      C2804   1.407       .  A
C2803      C2808   1.408       .  A
C2803     Br2810   1.920       .  S
C2804      C2805   1.404       .  A
C2805      C2806   1.418       .  A
C2805     Br2812   1.901       .  S
C2806      C2807   1.415       .  A
C2806     Br2811   1.921       .  S
C2807      C2808   1.422       .  A
C2808     Br2809   1.932       .  S
C2813      C2814   1.402       .  A
C2813      C2818   1.404       .  A
C2813     Br2820   1.931       .  S
C2814      C2815   1.420       .  A
C2815      C2816   1.428       .  A
C2815     Br2822   1.927       .  S
C2816      C2817   1.423       .  A
C2816     Br2821   1.925       .  S
C2817      C2818   1.425       .  A
C2818     Br2819   1.919       .  S
C2823      C2824   1.423       .  A
C2823      C2828   1.424       .  A
C2823     Br2830   1.929       .  S
C2824      C2825   1.425       .  A
C2825      C2826   1.405       .  A
C2825     Br2832   1.937       .  S
C2826      C2827   1.410       .  A
C2826     Br2831   1.910       .  S
C2827      C2828   1.419       .  A
C2828     Br2829   1.928       .  S
