geometry optimzed in LAMMPS
_audit_creation_date              2020-11-30 
_audit_creation_method            'lammps2cif' 
_symmetry_space_group_name_H-M    'P1' 
_symmetry_Int_Tables_number       1 
_symmetry_cell_setting            triclinic 
loop_ 
_symmetry_equiv_pos_as_xyz 
  x,y,z 
_cell_length_a                    57.38865269 
_cell_length_b                    57.39390550910688 
_cell_length_c                    26.976556589460554 
_cell_angle_alpha                 90.02489339790077 
_cell_angle_beta                  90.02342439214507 
_cell_angle_gamma                 89.98622340396452 
loop_ 
_atom_site_label 
_atom_site_type_symbol 
_atom_site_fract_x 
_atom_site_fract_y 
_atom_site_fract_z 
_atom_site_charge 
O1          O  0.48359951  0.01977910  0.05351895    -0.73000
O2          O  0.49052615  0.97191871  0.94648082    -0.74000
O3          O  0.48600959  0.97033984  0.05061671    -0.62600
O4          O  0.48827763  0.02139020  0.94900632    -0.71100
O5          O  0.52655280  0.02391604  0.95775651    -0.70600
O6          O  0.52443839  0.97141145  0.05704757    -0.61900
O7          O  0.52898046  0.97422892  0.95243865    -0.74400
O8          O  0.52200363  0.02068721  0.06314527    -0.73100
Cu9        Cu  0.48580563  0.99583638  0.99958149     1.04600
Cu10       Cu  0.52685909  0.99766441  0.00779481     1.04300
C11         C  0.50164908  0.02748092  0.07583996     0.93200
C12         C  0.51077092  0.96524101  0.93291721     0.92300
C13         C  0.50484724  0.96266623  0.06989971     0.84400
C14         C  0.50766686  0.03090334  0.93738780     0.90700
N15         N  0.49854364  0.17653389  0.60466477    -0.27400
N16         N  0.49107453  0.15801135  0.58035643    -0.35200
C17         C  0.49177566  0.13936653  0.61020424     0.01000
C18         C  0.50039777  0.14617391  0.65582946     0.07000
C19         C  0.50423385  0.17001744  0.65123226    -0.06100
H20         H  0.48651445  0.12204724  0.59906130     0.07600
H21         H  0.51117631  0.18160437  0.67921535     0.08800
Cu22       Cu  0.48288427  0.15770547  0.50613679     0.44200
Cu23       Cu  0.50084235  0.20908425  0.57013437     0.42000
Cu24       Cu  0.49397578  0.20801825  0.43288790     0.43900
N25         N  0.48342307  0.15694830  0.42993806    -0.34800
N26         N  0.48815644  0.17523323  0.40207098    -0.29000
C27         C  0.48959998  0.16826366  0.35444159    -0.05100
C28         C  0.48579620  0.14432632  0.35257501     0.07100
C29         C  0.48178719  0.13793371  0.40126141     0.00900
H30         H  0.49346930  0.17975280  0.32378256     0.08500
H31         H  0.47907827  0.12049214  0.41531405     0.07600
N32         N  0.49809186  0.23806954  0.47547700    -0.36200
N33         N  0.50005960  0.23854785  0.52442233    -0.28400
C34         C  0.50099797  0.26092909  0.53938635    -0.03600
C35         C  0.49989264  0.27519705  0.49803505     0.05000
C36         C  0.49802262  0.26007986  0.45824225     0.03100
H37         H  0.50237337  0.26643013  0.57764029     0.08200
H38         H  0.49604201  0.26473422  0.41961208     0.07000
N39         N  0.52547107  0.81876477  0.60495011    -0.27400
N40         N  0.52910205  0.83724151  0.57685359    -0.35200
C41         C  0.52977285  0.85636141  0.60540593     0.01000
C42         C  0.52613608  0.84976606  0.65407854     0.07000
C43         C  0.52379720  0.82570943  0.65257115    -0.06100
H44         H  0.53181561  0.87388602  0.59132699     0.07600
H45         H  0.51981256  0.81430976  0.68334819     0.08800
Cu46       Cu  0.52884174  0.83649823  0.50055652     0.44200
Cu47       Cu  0.52020689  0.78583591  0.57455642     0.42000
Cu48       Cu  0.51037451  0.78440321  0.43865328     0.43900
N49         N  0.52089390  0.83531906  0.42615640    -0.34800
N50         N  0.51348662  0.81652997  0.40269348    -0.29000
C51         C  0.50836967  0.82239715  0.35546602    -0.05100
C52         C  0.51280090  0.84606976  0.34921729     0.07100
C53         C  0.52069475  0.85351277  0.39502502     0.00900
H54         H  0.50132335  0.81045718  0.32831171     0.08500
H55         H  0.52574873  0.87101284  0.40534721     0.07600
N56         N  0.51013667  0.75518229  0.48505797    -0.36200
N57         N  0.51398308  0.75572226  0.53346089    -0.28400
C58         C  0.51306764  0.73384617  0.55134946    -0.03600
C59         C  0.50818522  0.71872437  0.51267717     0.05000
C60         C  0.50657628  0.73292003  0.47116821     0.03100
H61         H  0.51556120  0.72930885  0.58991026     0.08200
H62         H  0.50351703  0.72746849  0.43334108     0.07000
O63         O  0.97022986  0.49001339  0.04681020    -0.73000
O64         O  0.01815121  0.48864740  0.93966640    -0.74000
O65         O  0.01972343  0.48648563  0.04424072    -0.62600
O66         O  0.96881754  0.49254806  0.94209999    -0.71100
O67         O  0.97115186  0.53099060  0.94801837    -0.70600
O68         O  0.02311460  0.52485864  0.04599394    -0.61900
O69         O  0.02042645  0.52721245  0.94139180    -0.74400
O70         O  0.97380434  0.52838701  0.05248224    -0.73100
Cu71       Cu  0.99412167  0.48808277  0.99307652     1.04600
Cu72       Cu  0.99722676  0.52919549  0.99709962     1.04300
C73         C  0.96442850  0.50933906  0.06676671     0.93200
C74         C  0.02687125  0.50762878  0.92345025     0.92300
C75         C  0.02970238  0.50481478  0.06098107     0.84400
C76         C  0.96171236  0.51283016  0.92952401     0.90700
N77         N  0.17597128  0.49577642  0.39118942    -0.27400
N78         N  0.15652539  0.49703693  0.41715687    -0.35200
C79         C  0.13816115  0.49657393  0.38650162     0.01000
C80         C  0.14623630  0.49471412  0.33843779     0.07000
C81         C  0.17038443  0.49455523  0.34264910    -0.06100
H82         H  0.12021709  0.49758031  0.39857308     0.07600
H83         H  0.18288811  0.49311414  0.31280688     0.08800
Cu84       Cu  0.15537580  0.49835350  0.49304077     0.44200
Cu85       Cu  0.20848088  0.49494740  0.42605517     0.42000
Cu86       Cu  0.20744318  0.49539065  0.56461266     0.43900
N87         N  0.15547892  0.49803301  0.56899584    -0.34800
N88         N  0.17445482  0.49685474  0.59650518    -0.29000
C89         C  0.16812356  0.49673791  0.64464000    -0.05100
C90         C  0.14393611  0.49794810  0.64708484     0.07100
C91         C  0.13667429  0.49869314  0.59827859     0.00900
H92         H  0.18021139  0.49546298  0.67527689     0.08500
H93         H  0.11895986  0.49984865  0.58477115     0.07600
N94         N  0.23741580  0.49420198  0.52110834    -0.36200
N95         N  0.23782916  0.49394188  0.47200676    -0.28400
C96         C  0.26015880  0.49301472  0.45683617    -0.03600
C97         C  0.27454939  0.49255781  0.49817355     0.05000
C98         C  0.25944161  0.49351277  0.53817254     0.03100
H99         H  0.26545685  0.49312374  0.41837625     0.08200
H100        H  0.26409617  0.49348813  0.57703927     0.07000
N101        N  0.81767979  0.50891345  0.39723799    -0.27400
N102        N  0.83655907  0.51356594  0.42333067    -0.35200
C103        C  0.85522531  0.51326608  0.39360781     0.01000
C104        C  0.84799736  0.50821420  0.34590283     0.07000
C105        C  0.82394725  0.50546604  0.34960704    -0.06100
H106        H  0.87279366  0.51686669  0.40596727     0.07600
H107        H  0.81189992  0.50103660  0.32026378     0.08800
Cu108      Cu  0.83667885  0.52011689  0.49803973     0.44200
Cu109      Cu  0.78487684  0.50798294  0.43030695     0.42000
Cu110      Cu  0.78424053  0.51887760  0.56712084     0.43900
N111        N  0.83578694  0.52497350  0.57330561    -0.34800
N112        N  0.81655843  0.52436561  0.60001926    -0.29000
C113        C  0.82233499  0.52659096  0.64823251    -0.05100
C114        C  0.84641858  0.52887593  0.65163283     0.07100
C115        C  0.85422721  0.52756627  0.60321664     0.00900
H116        H  0.81000625  0.52599272  0.67852551     0.08500
H117        H  0.87208653  0.52715254  0.59050553     0.07600
N118        N  0.75501668  0.51270693  0.52330984    -0.36200
N119        N  0.75520970  0.50859257  0.47496464    -0.28400
C120        C  0.73319339  0.50496890  0.45959078    -0.03600
C121        C  0.71845496  0.50686341  0.50002701     0.05000
C122        C  0.73288951  0.51194337  0.53963973     0.03100
H123        H  0.72828739  0.50150248  0.42157532     0.08200
H124        H  0.72772427  0.51457355  0.57780225     0.07000
O125        O  0.46125295  0.49513071  0.54638928    -0.73000
O126        O  0.53124021  0.49638217  0.54784882    -0.74000
O127        O  0.49588551  0.53103399  0.55108979    -0.62600
O128        O  0.49700534  0.46093161  0.54335888    -0.71100
O129        O  0.49498679  0.46284128  0.46126676    -0.70600
O130        O  0.49832694  0.53286857  0.46914406    -0.61900
O131        O  0.53155094  0.49639604  0.46586430    -0.74400
O132        O  0.46153627  0.49932921  0.46461838    -0.73100
Cu133      Cu  0.49627766  0.49583288  0.55002923     1.04600
Cu134      Cu  0.49656970  0.49794891  0.46235248     1.04300
C135        C  0.45034111  0.49708567  0.50528489     0.93200
C136        C  0.54256929  0.49621027  0.50709474     0.92300
C137        C  0.49777634  0.54301495  0.51133202     0.84400
C138        C  0.49595727  0.45087349  0.50115899     0.90700
C139        C  0.69276374  0.50438551  0.50104859    -0.20000
C140        C  0.68126667  0.48684197  0.47365985     0.36300
C141        C  0.65682916  0.48536971  0.47536575    -0.25900
C142        C  0.64365968  0.50106613  0.50375204     0.02700
C143        C  0.65514774  0.51852081  0.53133864     0.27500
C144        C  0.67960032  0.51981950  0.53014592    -0.25100
N145        N  0.69443076  0.47028377  0.44511755    -0.82500
H146        H  0.64796941  0.47177979  0.45479973     0.13300
C147        C  0.61784147  0.49906638  0.50415014     0.02700
N148        N  0.64190148  0.53506920  0.55976895    -0.81000
H149        H  0.68840912  0.53331835  0.55107184     0.18100
C150        C  0.60622224  0.49573091  0.54928507    -0.25900
C151        C  0.58178755  0.49412534  0.55142257     0.36200
C152        C  0.56856388  0.49621433  0.50720240    -0.19900
C153        C  0.58041435  0.49902169  0.46191243    -0.25100
C154        C  0.60483080  0.50053287  0.45995119     0.27500
H155        H  0.61634910  0.49420261  0.58304567     0.13300
N156        N  0.57053599  0.49036120  0.59835494    -0.82400
H157        H  0.57060114  0.50052752  0.42776176     0.18100
N158        N  0.61645937  0.50397863  0.41331976    -0.81000
H159        H  0.58273884  0.49012202  0.62715280     0.33800
H160        H  0.56307121  0.47375102  0.59736913     0.38300
H161        H  0.60441942  0.50453960  0.38424682     0.33700
H162        H  0.62451505  0.52030734  0.41447820     0.30400
H163        H  0.65296974  0.54674718  0.57796380     0.33700
H164        H  0.63196592  0.54490118  0.53490438     0.30400
H165        H  0.70440940  0.46045043  0.46990244     0.38300
H166        H  0.68332435  0.45860327  0.42703908     0.33800
C167        C  0.30047232  0.49194407  0.49988947    -0.20000
C168        C  0.31377192  0.47982735  0.46399634     0.36300
C169        C  0.33826157  0.48029482  0.46673195    -0.25900
C170        C  0.34970420  0.49234926  0.50475454     0.02700
C171        C  0.33657370  0.50426350  0.54086100     0.27500
C172        C  0.31209488  0.50382079  0.53823106    -0.25100
N173        N  0.30245276  0.46677986  0.42541116    -0.82500
H174        H  0.34853348  0.47120731  0.43911241     0.13300
C175        C  0.37549581  0.49319576  0.50502287     0.02700
N176        N  0.34815535  0.51744486  0.57894679    -0.81000
H177        H  0.30205771  0.51327824  0.56564275     0.18100
C178        C  0.38682680  0.50994158  0.47590098    -0.25900
C179        C  0.41128752  0.51153802  0.47524481     0.36200
C180        C  0.42458155  0.49621117  0.50483235    -0.19900
C181        C  0.41318533  0.47934539  0.53371032    -0.25100
C182        C  0.38874582  0.47742037  0.53346805     0.27500
H183        H  0.37649617  0.52183530  0.45374597     0.13300
N184        N  0.42264177  0.52883307  0.44523501    -0.82400
H185        H  0.42344280  0.46726925  0.55557533     0.18100
N186        N  0.37740362  0.45905786  0.56051725    -0.81000
H187        H  0.41036712  0.53858750  0.42548083     0.33800
H188        H  0.43110513  0.54042419  0.46912644     0.38300
H189        H  0.38971067  0.44853778  0.57829114     0.33700
H190        H  0.36732960  0.46663782  0.58843195     0.30400
H191        H  0.33597926  0.52571150  0.60179530     0.33700
H192        H  0.35726780  0.50578807  0.60148086     0.30400
H193        H  0.29332844  0.45315132  0.44224550     0.38300
H194        H  0.31473870  0.45909150  0.40191754     0.33800
C195        C  0.04904485  0.50273258  0.09769080    -0.20000
C196        C  0.05861440  0.52242687  0.12217306     0.36300
C197        C  0.07675867  0.51936036  0.15655441    -0.25900
C198        C  0.08540259  0.49716925  0.16780626     0.02700
C199        C  0.07626445  0.47756603  0.14307348     0.27500
C200        C  0.05822387  0.48053241  0.10833916    -0.25100
N201        N  0.04966033  0.54544029  0.11313471    -0.82500
H202        H  0.08362873  0.53432657  0.17623253     0.13300
C203        C  0.10247682  0.49469878  0.20884255     0.02700
N204        N  0.08528822  0.45472542  0.15359194    -0.81000
H205        H  0.05128684  0.46534521  0.08961010     0.18100
C206        C  0.09609141  0.48177264  0.25071820    -0.25900
C207        C  0.11053727  0.48078490  0.29263698     0.36200
C208        C  0.13176527  0.49329930  0.29297988    -0.19900
C209        C  0.13861487  0.50548161  0.25028203    -0.25100
C210        C  0.12412647  0.50635095  0.20817197     0.27500
H211        H  0.07945513  0.47284125  0.25109829     0.13300
N212        N  0.10370832  0.46707874  0.33479978    -0.82400
H213        H  0.15493980  0.51495807  0.25036445     0.18100
N214        N  0.13109815  0.51926249  0.16502020    -0.81000
H215        H  0.08757571  0.45911928  0.32864227     0.33800
H216        H  0.11588722  0.45365657  0.33874241     0.38300
H217        H  0.14740823  0.52694626  0.17058771     0.33700
H218        H  0.13304709  0.50737809  0.13592884     0.30400
H219        H  0.07664388  0.44212212  0.13248174     0.33700
H220        H  0.10273296  0.45444363  0.14244407     0.30400
H221        H  0.03278960  0.54608297  0.12768529     0.38300
H222        H  0.05932732  0.55793801  0.13246780     0.33800
C223        C  0.04484051  0.50658522  0.88429299    -0.20000
C224        C  0.04740060  0.52443168  0.84863109     0.36300
C225        C  0.06460028  0.52222268  0.81185871    -0.25900
C226        C  0.07916300  0.50264533  0.81027507     0.02700
C227        C  0.07694134  0.48503854  0.84616838     0.27500
C228        C  0.05969137  0.48711902  0.88270875    -0.25100
N229        N  0.03229555  0.54441989  0.84919291    -0.82500
H230        H  0.06648836  0.53562533  0.78385639     0.13300
C231        C  0.09614033  0.50043264  0.76960486     0.02700
N232        N  0.09241727  0.46532694  0.84571285    -0.81000
H233        H  0.05796502  0.47355329  0.91039177     0.18100
C234        C  0.11850844  0.50981084  0.77522121    -0.25900
C235        C  0.13471524  0.50900412  0.73613739     0.36200
C236        C  0.12837753  0.49818539  0.69098916    -0.19900
C237        C  0.10601558  0.48839359  0.68621972    -0.25100
C238        C  0.08979227  0.48953977  0.72493516     0.27500
H239        H  0.12308840  0.51826264  0.80980963     0.13300
N240        N  0.15714361  0.51981629  0.74168994    -0.82400
H241        H  0.10106300  0.47988153  0.65197030     0.18100
N242        N  0.06669504  0.48025092  0.71868406    -0.81000
H243        H  0.15902706  0.52676818  0.77729980     0.33800
H244        H  0.15782509  0.53388254  0.71711383     0.38300
H245        H  0.06465351  0.47329149  0.68312565     0.33700
H246        H  0.06472055  0.46638973  0.74343051     0.30400
H247        H  0.08876007  0.45418004  0.87533693     0.33700
H248        H  0.08920635  0.45582704  0.81336539     0.30400
H249        H  0.01539233  0.53859783  0.84165615     0.38300
H250        H  0.03670667  0.55597338  0.82075633     0.33800
C251        C  0.94652291  0.50942235  0.10621518    -0.20000
C252        C  0.94659552  0.52614544  0.14468566     0.36300
C253        C  0.92940301  0.52506408  0.18167909    -0.25900
C254        C  0.91229962  0.50763202  0.18104071     0.02700
C255        C  0.91203244  0.49108675  0.14257680     0.27500
C256        C  0.92916458  0.49213518  0.10551370    -0.25100
N257        N  0.96436745  0.54377575  0.14678856    -0.82500
H258        H  0.92949175  0.53764747  0.21164848     0.13300
C259        C  0.89543497  0.50635389  0.22232119     0.02700
N260        N  0.89452629  0.47317820  0.14169838    -0.81000
H261        H  0.92896271  0.47937248  0.07590424     0.18100
C262        C  0.87204395  0.51221263  0.21415312    -0.25900
C263        C  0.85596245  0.51267710  0.25354627     0.36200
C264        C  0.86345710  0.50657414  0.30181515    -0.19900
C265        C  0.88681429  0.49992963  0.30915183    -0.25100
C266        C  0.90286431  0.49986654  0.27001008     0.27500
H267        H  0.86654514  0.51718350  0.17720519     0.13300
N268        N  0.83242343  0.52015907  0.24484709    -0.82400
H269        H  0.89268711  0.49482119  0.34571019     0.18100
N270        N  0.92676195  0.49343148  0.27844957    -0.81000
H271        H  0.82977332  0.52371838  0.20726116     0.33800
H272        H  0.83005666  0.53590431  0.26370922     0.38300
H273        H  0.92949626  0.48934232  0.31576422     0.33700
H274        H  0.93002240  0.47821431  0.25827966     0.30400
H275        H  0.89666312  0.46246898  0.11066793     0.33700
H276        H  0.89709309  0.46262520  0.17281338     0.30400
H277        H  0.98029599  0.53538871  0.15282232     0.38300
H278        H  0.96170648  0.55480267  0.17713099     0.33800
C279        C  0.94272532  0.51528359  0.89267985    -0.20000
C280        C  0.92631605  0.53369291  0.89511604     0.36300
C281        C  0.90906518  0.53552818  0.85832533    -0.25900
C282        C  0.90808759  0.51961160  0.81911968     0.02700
C283        C  0.92406983  0.50103219  0.81698658     0.27500
C284        C  0.94113265  0.49892826  0.85406617    -0.25100
N285        N  0.92683867  0.55015673  0.93529450    -0.82500
H286        H  0.89664319  0.54974504  0.85949950     0.13300
C287        C  0.89126672  0.52348894  0.77857695     0.02700
N288        N  0.92324117  0.48477707  0.77645446    -0.81000
H289        H  0.95363662  0.48480750  0.85208927     0.18100
C290        C  0.89844124  0.53632570  0.73728350    -0.25900
C291        C  0.88354741  0.53957507  0.69661927     0.36200
C292        C  0.86121266  0.52909674  0.69678947    -0.19900
C293        C  0.85367177  0.51724240  0.73947270    -0.25100
C294        C  0.86853567  0.51435345  0.78048910     0.27500
H295        H  0.91580862  0.54374420  0.73680007     0.13300
N296        N  0.89100833  0.55357671  0.65539919    -0.82400
H297        H  0.83651639  0.50940198  0.74016322     0.18100
N298        N  0.86077528  0.50203616  0.82382298    -0.81000
H299        H  0.90789444  0.55987001  0.66111995     0.33800
H300        H  0.88007160  0.56812816  0.65373470     0.38300
H301        H  0.84348245  0.49666185  0.81954923     0.33700
H302        H  0.87079125  0.48689936  0.82701640     0.30400
H303        H  0.93645690  0.47234082  0.77992477     0.33700
H304        H  0.90745865  0.47575638  0.77878073     0.30400
H305        H  0.94119293  0.56104225  0.92973135     0.38300
H306        H  0.91220861  0.56100570  0.93404971     0.33800
C307        C  0.50589165  0.69291241  0.51536633    -0.20000
C308        C  0.48972402  0.68064033  0.48560121     0.36300
C309        C  0.48866640  0.65617741  0.48845309    -0.25900
C310        C  0.50324509  0.64372953  0.52058977     0.02700
C311        C  0.51917547  0.65585774  0.55082944     0.27500
C312        C  0.52022987  0.68034781  0.54816371    -0.25100
N313        N  0.47419409  0.69301599  0.45313713    -0.82500
H314        H  0.47645659  0.64669760  0.46536305     0.13300
C315        C  0.50227451  0.61790311  0.52025100     0.02700
N316        N  0.53464265  0.64321573  0.58299781    -0.81000
H317        H  0.53270325  0.68962547  0.57095448     0.18100
C318        C  0.51607496  0.60567544  0.48621626    -0.25900
C319        C  0.51497215  0.58123348  0.48283389     0.36200
C320        C  0.49966600  0.56877682  0.51419636    -0.19900
C321        C  0.48613015  0.58106687  0.54885619    -0.25100
C322        C  0.48710462  0.60556182  0.55183876     0.27500
H323        H  0.52767536  0.61530485  0.46204589     0.13300
N324        N  0.52955760  0.56901714  0.44814184    -0.82400
H325        H  0.47437855  0.57155398  0.57289084     0.18100
N326        N  0.47231010  0.61799190  0.58574916    -0.81000
H327        H  0.53966235  0.58073756  0.42771539     0.33800
H328        H  0.54119262  0.55878423  0.46855871     0.38300
H329        H  0.46181971  0.60638924  0.60557777     0.33700
H330        H  0.48297862  0.62628581  0.61172799     0.30400
H331        H  0.54562557  0.65468810  0.60201669     0.33700
H332        H  0.52452191  0.63487410  0.60983078     0.30400
H333        H  0.46314478  0.70309859  0.47526318     0.38300
H334        H  0.46355566  0.68140603  0.43362678     0.33800
C335        C  0.49956087  0.30105125  0.49690708    -0.20000
C336        C  0.51261900  0.31374365  0.46165496     0.36300
C337        C  0.51159979  0.33825816  0.46167779    -0.25900
C338        C  0.49780066  0.35025002  0.49611705     0.02700
C339        C  0.48476772  0.33765676  0.53130162     0.27500
C340        C  0.48587534  0.31316379  0.53154175    -0.25100
N341        N  0.52724631  0.30174001  0.42674233    -0.82500
H342        H  0.52173843  0.34810169  0.43505479     0.13300
C343        C  0.49773445  0.37607385  0.49619828     0.02700
N344        N  0.47040565  0.34984014  0.56644258    -0.81000
H345        H  0.47578493  0.30345757  0.55846448     0.18100
C346        C  0.47944879  0.38814007  0.47310329    -0.25900
C347        C  0.47856039  0.41266634  0.47397428     0.36200
C348        C  0.49624646  0.42518456  0.49868310    -0.19900
C349        C  0.51449189  0.41307584  0.52178542    -0.25100
C350        C  0.51551649  0.38860669  0.52042878     0.27500
H351        H  0.46579361  0.37836323  0.45473267     0.13300
N352        N  0.45959704  0.42488935  0.45079461    -0.82400
H353        H  0.52808685  0.42278786  0.54053567     0.18100
N354        N  0.53454574  0.37639245  0.54337299    -0.81000
H355        H  0.44805219  0.41312825  0.43426234     0.33800
H356        H  0.45027311  0.43344876  0.47869303     0.35900
H357        H  0.54634975  0.38816626  0.55901331     0.33700
H358        H  0.52774524  0.36658276  0.57262787     0.30400
H359        H  0.46169160  0.33804104  0.58941924     0.33700
H360        H  0.48139335  0.35960133  0.58933779     0.30400
H361        H  0.54032576  0.29327451  0.44684164     0.38300
H362        H  0.53562053  0.31360449  0.40335694     0.33800
C363        C  0.48715796  0.12812408  0.30962137    -0.20000
C364        C  0.50263897  0.13178999  0.26954592     0.36300
C365        C  0.50379579  0.11523185  0.23114345    -0.25900
C366        C  0.49030633  0.09492121  0.23260565     0.02700
C367        C  0.47495707  0.09111345  0.27238287     0.27500
C368        C  0.47346484  0.10778126  0.31037845    -0.25100
N369        N  0.51773847  0.15175151  0.26870412    -0.82500
H370        H  0.51569058  0.11785163  0.20045443     0.13300
C371        C  0.49280603  0.07751994  0.19258494     0.02700
N372        N  0.46122746  0.07017977  0.27429740    -0.81000
H373        H  0.46152854  0.10482144  0.34081613     0.18100
C374        C  0.50811655  0.05873865  0.19911744    -0.25900
C375        C  0.51123869  0.04206363  0.16148628     0.36200
C376        C  0.49882432  0.04441186  0.11657399    -0.19900
C377        C  0.48320451  0.06301601  0.11054149    -0.25100
C378        C  0.48015544  0.07969662  0.14811897     0.27500
H379        H  0.51760640  0.05712844  0.23368911     0.13300
N380        N  0.52659106  0.02257632  0.16898984    -0.82400
H381        H  0.47362387  0.06470438  0.07610028     0.18100
N382        N  0.46450919  0.09898638  0.14120844    -0.81000
H383        H  0.53435122  0.02344652  0.20400901     0.33800
H384        H  0.51642391  0.00745090  0.16864382     0.38300
H385        H  0.45677793  0.09822488  0.10613644     0.33700
H386        H  0.45103568  0.09729728  0.16701431     0.30400
H387        H  0.45105554  0.06985631  0.30644696     0.33700
H388        H  0.44964465  0.07052972  0.24440094     0.30400
H389        H  0.52783671  0.15188260  0.23643986     0.38300
H390        H  0.52936209  0.15011968  0.29834834     0.33800
C391        C  0.50793290  0.04977387  0.89938073    -0.20000
C392        C  0.52666780  0.06571397  0.89448922     0.36300
C393        C  0.52604753  0.08264551  0.85661439    -0.25900
C394        C  0.50710596  0.08406911  0.82395924     0.02700
C395        C  0.48828321  0.06857704  0.82926421     0.27500
C396        C  0.48886232  0.05165197  0.86681507    -0.25100
N397        N  0.54616515  0.06479141  0.92789457    -0.82500
H398        H  0.54045883  0.09466151  0.85219039     0.13300
C399        C  0.50751035  0.10093607  0.78238312     0.02700
N400        N  0.46880171  0.06990681  0.79584591    -0.81000
H401        H  0.47442231  0.03959854  0.87006736     0.18100
C402        C  0.51313003  0.09279350  0.73499143    -0.25900
C403        C  0.51192296  0.10751350  0.69350525     0.36200
C404        C  0.50448378  0.13087546  0.69946205    -0.19900
C405        C  0.49979299  0.13926579  0.74739454    -0.25100
C406        C  0.50106571  0.12442975  0.78895885     0.27500
H407        H  0.51826315  0.07474631  0.73037992     0.13300
N408        N  0.51839187  0.09881380  0.64545589    -0.82400
H409        H  0.49421607  0.15715876  0.75218832     0.18100
N410        N  0.49538057  0.13293815  0.83758312    -0.81000
H411        H  0.52328691  0.08129152  0.64749812     0.33800
H412        H  0.53312376  0.10805153  0.63392274     0.38300
H413        H  0.49106091  0.15062566  0.83614220     0.33700
H414        H  0.48044125  0.12415610  0.84950367     0.30400
H415        H  0.45648420  0.05708446  0.80424510     0.33700
H416        H  0.46063358  0.08596865  0.80158074     0.30400
H417        H  0.54003967  0.06912757  0.96320550     0.38300
H418        H  0.55855200  0.07741266  0.91856544     0.33800
C419        C  0.50927182  0.86111723  0.30488383    -0.20000
C420        C  0.51263932  0.85292235  0.25593761     0.36300
C421        C  0.51053781  0.86856002  0.21589346    -0.25900
C422        C  0.50541030  0.89217019  0.22383351     0.02700
C423        C  0.50175828  0.90029900  0.27246100     0.27500
C424        C  0.50352851  0.88469331  0.31231362    -0.25100
N425        N  0.51891492  0.82905155  0.24701637    -0.82500
H426        H  0.51339456  0.86246597  0.17836067     0.13300
C427        C  0.50494503  0.90862946  0.18143307     0.02700
N428        N  0.49673013  0.92450856  0.28120605    -0.81000
H429        H  0.50063410  0.89111675  0.34955180     0.18100
C430        C  0.48407319  0.91991633  0.16921615    -0.25900
C431        C  0.48339837  0.93740907  0.13271638     0.36200
C432        C  0.50415985  0.94363587  0.10748167    -0.19900
C433        C  0.52490729  0.93171161  0.11900339    -0.25100
C434        C  0.52552081  0.91437107  0.15578219     0.27500
H435        H  0.46834154  0.91543213  0.18926992     0.13300
N436        N  0.46180933  0.94914451  0.12228413    -0.82400
H437        H  0.54085240  0.93612411  0.09969598     0.18100
N438        N  0.54705178  0.90290025  0.16796240    -0.81000
H439        H  0.44817434  0.94189101  0.14283553     0.33800
H440        H  0.46352849  0.96636439  0.13440296     0.38300
H441        H  0.56057434  0.90899008  0.14546909     0.33700
H442        H  0.55137151  0.90745864  0.20435197     0.30400
H443        H  0.49440757  0.92767109  0.31905150     0.33700
H444        H  0.51133680  0.93412379  0.27033829     0.30400
H445        H  0.53542317  0.82635686  0.26241968     0.38300
H446        H  0.52050067  0.82586358  0.20901392     0.33800
C447        C  0.51314942  0.94687445  0.89462637    -0.20000
C448        C  0.49607906  0.92928669  0.88864557     0.36300
C449        C  0.49886452  0.91248742  0.85119335    -0.25900
C450        C  0.51833743  0.91283690  0.82000704     0.02700
C451        C  0.53545661  0.93017446  0.82600180     0.27500
C452        C  0.53280283  0.94692578  0.86358749    -0.25100
N453        N  0.47611639  0.92839105  0.92079530    -0.82500
H454        H  0.48573382  0.89913976  0.84596599     0.13300
C455        C  0.51976564  0.89594565  0.77883252     0.02700
N456        N  0.55504809  0.93110147  0.79285666    -0.81000
H457        H  0.54586929  0.96039852  0.86792441     0.18100
C458        C  0.50946765  0.90180746  0.73355059    -0.25900
C459        C  0.51072562  0.88667677  0.69279275     0.36200
C460        C  0.52303373  0.86542121  0.69726807    -0.19900
C461        C  0.53266094  0.85921939  0.74329779    -0.25100
C462        C  0.53115206  0.87434929  0.78427604     0.27500
H463        H  0.50033581  0.91826502  0.73015482     0.13300
N464        N  0.49913280  0.89262404  0.64726517    -0.82400
H465        H  0.54179306  0.84278453  0.74695699     0.18100
N466        N  0.54092133  0.86785179  0.83136321    -0.81000
H467        H  0.49092819  0.90883370  0.65021236     0.33800
H468        H  0.48594799  0.88034395  0.64150920     0.38300
H469        H  0.54841558  0.85127387  0.82929076     0.33700
H470        H  0.55444973  0.87943876  0.83939389     0.30400
H471        H  0.56579212  0.94523427  0.80155200     0.33700
H472        H  0.56500690  0.91609088  0.79850227     0.30400
H473        H  0.48212125  0.92481616  0.95659074     0.38300
H474        H  0.46514260  0.91460213  0.91092330     0.33800
loop_ 
_geom_bond_atom_site_label_1 
_geom_bond_atom_site_label_2 
_geom_bond_distance 
_geom_bond_site_symmetry_2 
_ccdc_geom_bond_type 
O1           Cu9   2.005   1_544  S
O1           C11   1.277       .  A
O2           Cu9   2.002       .  S
O2           C12   1.277       .  A
O3           Cu9   2.010   1_554  S
O3           C13   1.278       .  A
O4           Cu9   2.009   1_545  S
O4           C14   1.279       .  A
O5          Cu10   2.023   1_546  S
O5           C14   1.279       .  A
O6          Cu10   2.014       .  S
O6           C13   1.279       .  A
O7          Cu10   2.013   1_556  S
O7           C12   1.279       .  A
O8          Cu10   2.013   1_545  S
O8           C11   1.278       .  A
Cu9         Cu10   2.369   1_556  S
C11         C376   1.476       .  S
C12         C447   1.482       .  S
C13         C432   1.491       .  S
C14         C391   1.492       .  S
N15          N16   1.320       .  A
N15          C19   1.351       .  A
N15         Cu23   2.092       .  S
N16          C17   1.340       .  A
N16         Cu22   2.057       .  S
C17          C18   1.383       .  A
C17          H20   1.081       .  S
C18         C404   1.487       .  S
C18          C19   1.392       .  A
C19          H21   1.082       .  S
Cu22         N25   2.056       .  S
Cu23         N33   2.094       .  S
Cu24         N26   2.084       .  S
Cu24         N32   2.085       .  S
N25          N26   1.320       .  A
N25          C29   1.341       .  A
N26          C27   1.348       .  A
C27          C28   1.392       .  A
C27          H30   1.081       .  S
C28         C363   1.487       .  S
C28          C29   1.383       .  A
C29          H31   1.082       .  S
N32          N33   1.325       .  A
N32          C36   1.346       .  A
N33          C34   1.347       .  A
C34          C35   1.386       .  A
C34          H37   1.082       .  S
C35         C335   1.484       .  S
C35          C36   1.384       .  A
C36          H38   1.082       .  S
N39          N40   1.320       .  A
N39          C43   1.348       .  A
N39         Cu47   2.082       .  S
N40          C41   1.341       .  A
N40         Cu46   2.059       .  S
C41          C42   1.383       .  A
C41          H44   1.082       .  S
C42         C460   1.482       .  S
C42          C43   1.388       .  A
C43          H45   1.082       .  S
Cu46         N49   2.059       .  S
Cu47         N57   2.084       .  S
Cu48         N50   2.092       .  S
Cu48         N56   2.093       .  S
N49          N50   1.320       .  A
N49          C53   1.340       .  A
N50          C51   1.350       .  A
C51          C52   1.393       .  A
C51          H54   1.081       .  S
C52         C419   1.489       .  S
C52          C53   1.383       .  A
C53          H55   1.082       .  S
N56          N57   1.325       .  A
N56          C60   1.347       .  A
N57          C58   1.346       .  A
C58          C59   1.385       .  A
C58          H61   1.082       .  S
C59         C307   1.489       .  S
C59          C60   1.388       .  A
C60          H62   1.081       .  S
O63         Cu71   1.999   1_554  S
O63          C73   1.277       .  A
O64         Cu71   1.995   1_455  S
O64          C74   1.277       .  A
O65         Cu71   2.018   1_454  S
O65          C75   1.280       .  A
O66         Cu71   2.016       .  S
O66          C76   1.279       .  A
O67         Cu72   2.000       .  S
O67          C76   1.276       .  A
O68         Cu72   2.002   1_454  S
O68          C75   1.277       .  A
O69         Cu72   2.011   1_455  S
O69          C74   1.278       .  A
O70         Cu72   2.011   1_554  S
O70          C73   1.278       .  A
Cu71        Cu72   2.369       .  S
C73         C251   1.480       .  S
C74         C223   1.478       .  S
C75         C195   1.492       .  S
C76         C279   1.481       .  S
N77          N78   1.320       .  A
N77          C81   1.350       .  A
N77         Cu85   2.090       .  S
N78          C79   1.340       .  A
N78         Cu84   2.050       .  S
C79          C80   1.381       .  A
C79          H82   1.082       .  S
C80         C208   1.483       .  S
C80          C81   1.390       .  A
C81          H83   1.082       .  S
Cu84         N87   2.049       .  S
Cu85         N95   2.092       .  S
Cu86         N88   2.081       .  S
Cu86         N94   2.084       .  S
N87          N88   1.319       .  A
N87          C91   1.338       .  A
N88          C89   1.349       .  A
C89          C90   1.391       .  A
C89          H92   1.081       .  S
C90         C236   1.484       .  S
C90          C91   1.382       .  A
C91          H93   1.082       .  S
N94          N95   1.325       .  A
N94          C98   1.346       .  A
N95          C96   1.346       .  A
C96          C97   1.388       .  A
C96          H99   1.081       .  S
C97         C167   1.489       .  S
C97          C98   1.386       .  A
C98         H100   1.082       .  S
N101        N102   1.319       .  A
N101        C105   1.349       .  A
N101       Cu109   2.084       .  S
N102        C103   1.338       .  A
N102       Cu108   2.050       .  S
C103        C104   1.383       .  A
C103        H106   1.082       .  S
C104        C264   1.487       .  S
C104        C105   1.393       .  A
C105        H107   1.081       .  S
Cu108       N111   2.050       .  S
Cu109       N119   2.086       .  S
Cu110       N112   2.080       .  S
Cu110       N118   2.082       .  S
N111        N112   1.319       .  A
N111        C115   1.339       .  A
N112        C113   1.348       .  A
C113        C114   1.391       .  A
C113        H116   1.082       .  S
C114        C292   1.485       .  S
C114        C115   1.383       .  A
C115        H117   1.081       .  S
N118        N119   1.325       .  A
N118        C122   1.345       .  A
N119        C120   1.346       .  A
C120        C121   1.385       .  A
C120        H123   1.082       .  S
C121        C139   1.482       .  S
C121        C122   1.383       .  A
C122        H124   1.082       .  S
O125       Cu133   2.013       .  S
O125        C135   1.278       .  A
O126       Cu133   2.008       .  S
O126        C136   1.278       .  A
O127       Cu133   2.021       .  S
O127        C137   1.279       .  A
O128       Cu133   2.012       .  S
O128        C138   1.278       .  A
O129       Cu134   2.017       .  S
O129        C138   1.278       .  A
O130       Cu134   2.015       .  S
O130        C137   1.279       .  A
O131       Cu134   2.012       .  S
O131        C136   1.279       .  A
O132       Cu134   2.013       .  S
O132        C135   1.278       .  A
Cu133      Cu134   2.368       .  S
C135        C180   1.479       .  S
C136        C152   1.492       .  S
C137        C320   1.485       .  S
C138        C348   1.476       .  S
C139        C140   1.412       .  A
C139        C144   1.404       .  A
C140        C141   1.406       .  A
C140        N145   1.437       .  S
C141        C142   1.403       .  A
C141        H146   1.084       .  S
C142        C147   1.486       .  S
C142        C143   1.411       .  A
C143        C144   1.406       .  A
C143        N148   1.438       .  S
C144        H149   1.084       .  S
N145        H165   1.046       .  S
N145        H166   1.046       .  S
C147        C150   1.402       .  A
C147        C154   1.409       .  A
N148        H163   1.046       .  S
N148        H164   1.046       .  S
C150        C151   1.407       .  A
C150        H155   1.084       .  S
C151        C152   1.419       .  A
C151        N156   1.438       .  S
C152        C153   1.408       .  A
C153        C154   1.405       .  A
C153        H157   1.083       .  S
C154        N158   1.438       .  S
N156        H159   1.046       .  S
N156        H160   1.046       .  S
N158        H161   1.046       .  S
N158        H162   1.046       .  S
C167        C168   1.415       .  A
C167        C172   1.407       .  A
C168        C169   1.408       .  A
C168        N173   1.437       .  S
C169        C170   1.400       .  A
C169        H174   1.084       .  S
C170        C175   1.481       .  S
C170        C171   1.409       .  A
C171        C172   1.407       .  A
C171        N176   1.438       .  S
C172        H177   1.083       .  S
N173        H193   1.045       .  S
N173        H194   1.046       .  S
C175        C178   1.402       .  A
C175        C182   1.409       .  A
N176        H191   1.046       .  S
N176        H192   1.044       .  S
C178        C179   1.407       .  A
C178        H183   1.084       .  S
C179        C180   1.412       .  A
C179        N184   1.438       .  S
C180        C181   1.405       .  A
C181        C182   1.407       .  A
C181        H185   1.084       .  S
C182        N186   1.438       .  S
N184        H187   1.046       .  S
N184        H188   1.046       .  S
N186        H189   1.045       .  S
N186        H190   1.044       .  S
C195        C196   1.419       .  A
C195        C200   1.408       .  A
C196        C197   1.405       .  A
C196        N201   1.438       .  S
C197        C198   1.400       .  A
C197        H202   1.084       .  S
C198        C203   1.485       .  S
C198        C199   1.409       .  A
C199        C200   1.406       .  A
C199        N204   1.438       .  S
C200        H205   1.083       .  S
N201        H221   1.046       .  S
N201        H222   1.046       .  S
C203        C206   1.401       .  A
C203        C210   1.411       .  A
N204        H219   1.046       .  S
N204        H220   1.046       .  S
C206        C207   1.403       .  A
C206        H211   1.084       .  S
C207        C208   1.414       .  A
C207        N212   1.438       .  S
C208        C209   1.404       .  A
C209        C210   1.408       .  A
C209        H213   1.083       .  S
C210        N214   1.437       .  S
N212        H215   1.046       .  S
N212        H216   1.045       .  S
N214        H217   1.046       .  S
N214        H218   1.046       .  S
C223        C224   1.413       .  A
C223        C228   1.406       .  A
C224        C225   1.405       .  A
C224        N229   1.438       .  S
C225        C226   1.401       .  A
C225        H230   1.084       .  S
C226        C231   1.473       .  S
C226        C227   1.406       .  A
C227        C228   1.402       .  A
C227        N232   1.438       .  S
C228        H233   1.084       .  S
N229        H249   1.046       .  S
N229        H250   1.045       .  S
C231        C234   1.400       .  A
C231        C238   1.405       .  A
N232        H247   1.045       .  S
N232        H248   1.045       .  S
C234        C235   1.407       .  A
C234        H239   1.084       .  S
C235        C236   1.414       .  A
C235        N240   1.437       .  S
C236        C237   1.407       .  A
C237        C238   1.401       .  A
C237        H241   1.083       .  S
C238        N242   1.439       .  S
N240        H243   1.046       .  S
N240        H244   1.046       .  S
N242        H245   1.045       .  S
N242        H246   1.045       .  S
C251        C252   1.413       .  A
C251        C256   1.406       .  A
C252        C253   1.405       .  A
C252        N257   1.438       .  S
C253        C254   1.402       .  A
C253        H258   1.084       .  S
C254        C259   1.478       .  S
C254        C255   1.406       .  A
C255        C256   1.404       .  A
C255        N260   1.438       .  S
C256        H261   1.084       .  S
N257        H277   1.046       .  S
N257        H278   1.046       .  S
C259        C262   1.401       .  A
C259        C266   1.405       .  A
N260        H275   1.046       .  S
N260        H276   1.046       .  S
C262        C263   1.408       .  A
C262        H267   1.084       .  S
C263        C264   1.415       .  A
C263        N268   1.437       .  S
C264        C265   1.407       .  A
C265        C266   1.401       .  A
C265        H269   1.083       .  S
C266        N270   1.438       .  S
N268        H271   1.045       .  S
N268        H272   1.046       .  S
N270        H273   1.045       .  S
N270        H274   1.046       .  S
C279        C280   1.417       .  A
C279        C284   1.405       .  A
C280        C281   1.406       .  A
C280        N285   1.438       .  S
C281        C282   1.398       .  A
C281        H286   1.084       .  S
C282        C287   1.475       .  S
C282        C283   1.408       .  A
C283        C284   1.405       .  A
C283        N288   1.438       .  S
C284        H289   1.084       .  S
N285        H305   1.045       .  S
N285        H306   1.046       .  S
C287        C290   1.398       .  A
C287        C294   1.407       .  A
N288        H303   1.046       .  S
N288        H304   1.045       .  S
C290        C291   1.403       .  A
C290        H295   1.084       .  S
C291        C292   1.416       .  A
C291        N296   1.438       .  S
C292        C293   1.406       .  A
C293        C294   1.407       .  A
C293        H297   1.083       .  S
C294        N298   1.437       .  S
N296        H299   1.046       .  S
N296        H300   1.046       .  S
N298        H301   1.046       .  S
N298        H302   1.045       .  S
C307        C308   1.415       .  A
C307        C312   1.407       .  A
C308        C309   1.407       .  A
C308        N313   1.437       .  S
C309        C310   1.401       .  A
C309        H314   1.084       .  S
C310        C315   1.483       .  S
C310        C311   1.409       .  A
C311        C312   1.409       .  A
C311        N316   1.438       .  S
C312        H317   1.083       .  S
N313        H333   1.045       .  S
N313        H334   1.046       .  S
C315        C318   1.401       .  A
C315        C322   1.410       .  A
N316        H331   1.046       .  S
N316        H332   1.045       .  S
C318        C319   1.407       .  A
C318        H323   1.084       .  S
C319        C320   1.414       .  A
C319        N324   1.438       .  S
C320        C321   1.405       .  A
C321        C322   1.409       .  A
C321        H325   1.084       .  S
C322        N326   1.438       .  S
N324        H327   1.046       .  S
N324        H328   1.046       .  S
N326        H329   1.045       .  S
N326        H330   1.045       .  S
C335        C336   1.414       .  A
C335        C340   1.405       .  A
C336        C337   1.408       .  A
C336        N341   1.437       .  S
C337        C338   1.401       .  A
C337        H342   1.084       .  S
C338        C343   1.482       .  S
C338        C339   1.409       .  A
C339        C340   1.407       .  A
C339        N344   1.438       .  S
C340        H345   1.084       .  S
N341        H361   1.046       .  S
N341        H362   1.046       .  S
C343        C346   1.403       .  A
C343        C350   1.409       .  A
N344        H359   1.046       .  S
N344        H360   1.045       .  S
C346        C347   1.409       .  A
C346        H351   1.084       .  S
C347        C348   1.411       .  A
C347        N352   1.438       .  S
C348        C349   1.403       .  A
C349        C350   1.406       .  A
C349        H353   1.084       .  S
C350        N354   1.438       .  S
N352        H355   1.046       .  S
N352        H356   1.046       .  S
N354        H357   1.046       .  S
N354        H358   1.045       .  S
C363        C364   1.415       .  A
C363        C368   1.408       .  A
C364        C365   1.407       .  A
C364        N369   1.437       .  S
C365        C366   1.400       .  A
C365        H370   1.084       .  S
C366        C371   1.477       .  S
C366        C367   1.406       .  A
C367        C368   1.404       .  A
C367        N372   1.438       .  S
C368        H373   1.083       .  S
N369        H389   1.046       .  S
N369        H390   1.045       .  S
C371        C374   1.402       .  A
C371        C378   1.407       .  A
N372        H387   1.046       .  S
N372        H388   1.045       .  S
C374        C375   1.406       .  A
C374        H379   1.084       .  S
C375        C376   1.412       .  A
C375        N380   1.438       .  S
C376        C377   1.403       .  A
C377        C378   1.405       .  A
C377        H381   1.084       .  S
C378        N382   1.437       .  S
N380        H383   1.045       .  S
N380        H384   1.046       .  S
N382        H385   1.046       .  S
N382        H386   1.045       .  S
C391        C392   1.418       .  A
C391        C396   1.407       .  A
C392        C393   1.411       .  A
C392        N397   1.437       .  S
C393        C394   1.401       .  A
C393        H398   1.084       .  S
C394        C399   1.482       .  S
C394        C395   1.407       .  A
C395        C396   1.404       .  A
C395        N400   1.438       .  S
C396        H401   1.083       .  S
N397        H417   1.045       .  S
N397        H418   1.046       .  S
C399        C402   1.399       .  A
C399        C406   1.409       .  A
N400        H415   1.046       .  S
N400        H416   1.046       .  S
C402        C403   1.404       .  A
C402        H407   1.084       .  S
C403        C404   1.416       .  A
C403        N408   1.438       .  S
C404        C405   1.406       .  A
C405        C406   1.410       .  A
C405        H409   1.083       .  S
C406        N410   1.437       .  S
N408        H411   1.046       .  S
N408        H412   1.046       .  S
N410        H413   1.046       .  S
N410        H414   1.046       .  S
C419        C420   1.415       .  A
C419        C424   1.407       .  A
C420        C421   1.410       .  A
C420        N425   1.437       .  S
C421        C422   1.403       .  A
C421        H426   1.084       .  S
C422        C427   1.484       .  S
C422        C423   1.408       .  A
C423        C424   1.403       .  A
C423        N428   1.438       .  S
C424        H429   1.083       .  S
N425        H445   1.046       .  S
N425        H446   1.045       .  S
C427        C430   1.401       .  A
C427        C434   1.408       .  A
N428        H443   1.045       .  S
N428        H444   1.046       .  S
C430        C431   1.407       .  A
C430        H435   1.084       .  S
C431        C432   1.418       .  A
C431        N436   1.438       .  S
C432        C433   1.408       .  A
C433        C434   1.406       .  A
C433        H437   1.083       .  S
C434        N438   1.438       .  S
N436        H439   1.046       .  S
N436        H440   1.046       .  S
N438        H441   1.046       .  S
N438        H442   1.046       .  S
C447        C448   1.416       .  A
C447        C452   1.405       .  A
C448        C449   1.405       .  A
C448        N453   1.438       .  S
C449        C450   1.399       .  A
C449        H454   1.084       .  S
C450        C455   1.476       .  S
C450        C451   1.408       .  A
C451        C452   1.405       .  A
C451        N456   1.438       .  S
C452        H457   1.084       .  S
N453        H473   1.046       .  S
N453        H474   1.046       .  S
C455        C458   1.398       .  A
C455        C462   1.409       .  A
N456        H471   1.046       .  S
N456        H472   1.045       .  S
C458        C459   1.403       .  A
C458        H463   1.084       .  S
C459        C460   1.415       .  A
C459        N464   1.438       .  S
C460        C461   1.405       .  A
C461        C462   1.408       .  A
C461        H465   1.083       .  S
C462        N466   1.438       .  S
N464        H467   1.046       .  S
N464        H468   1.046       .  S
N466        H469   1.046       .  S
N466        H470   1.045       .  S
