geometry optimzed in LAMMPS
_audit_creation_date              2020-11-30 
_audit_creation_method            'lammps2cif' 
_symmetry_space_group_name_H-M    'P1' 
_symmetry_Int_Tables_number       1 
_symmetry_cell_setting            triclinic 
loop_ 
_symmetry_equiv_pos_as_xyz 
  x,y,z 
_cell_length_a                    45.01341809 
_cell_length_b                    44.9072800550624 
_cell_length_c                    46.44997431681157 
_cell_angle_alpha                 89.65693381627982 
_cell_angle_beta                  88.33223654992572 
_cell_angle_gamma                 89.64566455197551 
loop_ 
_atom_site_label 
_atom_site_type_symbol 
_atom_site_fract_x 
_atom_site_fract_y 
_atom_site_fract_z 
_atom_site_charge 
C1          C  0.35344752  0.33450002  0.18738842    -0.02400
C2          C  0.34142000  0.34495236  0.31785342    -0.02400
C3          C  0.34524188  0.20669595  0.18583624    -0.02400
C4          C  0.36297633  0.21326587  0.31279562     0.07200
C5          C  0.21045239  0.21987364  0.18550380    -0.02400
C6          C  0.23351796  0.20510453  0.30996980    -0.02400
C7          C  0.22088966  0.34700540  0.18237464    -0.02400
C8          C  0.21552642  0.33798360  0.31063153    -0.02400
C9          C  0.84680161  0.71802830  0.19507961    -0.02400
C10         C  0.83421029  0.70809038  0.32345650    -0.02400
C11         C  0.71433432  0.70679216  0.18357626    -0.02400
C12         C  0.70242562  0.72409367  0.30906172    -0.02400
C13         C  0.70305141  0.83639760  0.19147303    -0.02400
C14         C  0.72212678  0.85426280  0.31506231    -0.02400
C15         C  0.83441007  0.85096237  0.19162967    -0.02400
C16         C  0.85540875  0.83600692  0.31691007    -0.02400
O17         O  0.89196658  0.48878279  0.41222763    -0.57700
C18         C  0.87432258  0.59832553  0.38136000     0.74900
O19         O  0.85943376  0.55278505  0.45970036    -0.58900
C20         C  0.90863156  0.48801875  0.38991648     0.74900
C21         C  0.93169994  0.55928796  0.45127783     0.77300
Cd22       Cd  0.88547828  0.54380789  0.41383804     1.37500
O23         O  0.85501363  0.57802361  0.38478972    -0.57700
O24         O  0.93300480  0.56560803  0.42471852    -0.56500
C25         C  0.83445080  0.54231785  0.45347465     0.77200
O26         O  0.90983650  0.54383966  0.46001724    -0.58900
O27         O  0.89977345  0.59235113  0.39061992    -0.57300
O28         O  0.91075578  0.51226543  0.37605476    -0.57300
O29         O  0.83231568  0.53280171  0.42787041    -0.56500
O30         O  0.97414605  0.69465332  0.12248280    -0.57700
C31         C  0.05333618  0.64988566  0.09788804     0.74900
O32         O  0.00855834  0.65203064  0.03171750    -0.58900
C33         C  0.94809599  0.68674940  0.11609516     0.74900
C34         C  0.00390279  0.72998493  0.03812559     0.77300
Cd35       Cd  0.99983251  0.67846683  0.07654528     1.37500
O36         O  0.05455803  0.67578851  0.08696640    -0.57700
O37         O  0.00860415  0.73242620  0.06485027    -0.56500
C38         C  0.98871300  0.63279775  0.03684722     0.77200
O39         O  0.99688438  0.70433817  0.02982274    -0.58900
O40         O  0.02755260  0.63953306  0.10199845    -0.57300
O41         O  0.94589701  0.67593794  0.09121298    -0.57300
O42         O  0.97474294  0.63452216  0.06084596    -0.56500
O43         O  0.91191198  0.01302019  0.04242696    -0.57700
C44         C  0.83295593  0.01204060  0.04772163     0.74900
O45         O  0.86062495  0.98304805  0.13029684    -0.58900
C46         C  0.92798665  0.99043855  0.04719883     0.74900
C47         C  0.91059140  0.06179609  0.11044047     0.77300
Cd48       Cd  0.88253073  0.00869949  0.08662211     1.37500
O49         O  0.85951244  0.00724910  0.03960155    -0.57700
O50         O  0.88734982  0.06368935  0.09584838    -0.56500
C51         C  0.86942173  0.95710560  0.12308134     0.77200
O52         O  0.91852583  0.03555181  0.11670300    -0.58900
O53         O  0.82871401  0.01630451  0.07455514    -0.57300
O54         O  0.92436757  0.97765130  0.07138792    -0.57300
O55         O  0.88380437  0.95555187  0.09943008    -0.56500
O56         O  0.03811439  0.91977558  0.39406911    -0.57700
C57         C  0.95602802  0.87286135  0.38620634     0.74900
O58         O  0.00210734  0.85703895  0.46826292    -0.58900
C59         C  0.06325989  0.91119806  0.40237844     0.74900
C60         C  0.99205252  0.93088282  0.46062274     0.77300
Cd61       Cd  0.00719068  0.88395940  0.42244309     1.37500
O62         O  0.98262070  0.86895789  0.37703830    -0.57700
O63         O  0.98629676  0.93298578  0.43418504    -0.56500
C64         C  0.00979479  0.83154651  0.45933822     0.77200
O65         O  0.00516337  0.90741456  0.46853266    -0.58900
O66         O  0.95318437  0.88148663  0.41196938    -0.57300
O67         O  0.06312320  0.88740028  0.41716756    -0.57300
O68         O  0.01710210  0.82990857  0.43272991    -0.56500
O69         O  0.57180010  0.69567501  0.37429147    -0.57700
C70         C  0.49576524  0.64429605  0.39894263     0.74900
O71         O  0.54832411  0.65114120  0.46628145    -0.58900
C72         C  0.59813147  0.68901089  0.38118081     0.74900
C73         C  0.54035808  0.72656678  0.45758189     0.77300
Cd74       Cd  0.54759045  0.67538415  0.41964292     1.37500
O75         O  0.52209051  0.63610273  0.39302618    -0.57700
O76         O  0.53676270  0.72943927  0.43065409    -0.56500
C77         C  0.56747364  0.63165860  0.45912348     0.77200
O78         O  0.54638420  0.70057146  0.46614188    -0.58900
O79         O  0.49315344  0.66903178  0.41171812    -0.57300
O80         O  0.60061830  0.67685378  0.40555503    -0.57300
O81         O  0.57629755  0.63147757  0.43300348    -0.56500
O82         O  0.70554343  0.57263195  0.12101163    -0.57700
C83         C  0.65591628  0.49184822  0.09824758     0.74900
O84         O  0.66120202  0.55232717  0.03180918    -0.58900
C85         C  0.69583314  0.59832253  0.11420888     0.74900
C86         C  0.73820606  0.54021416  0.03906950     0.77300
Cd87       Cd  0.68584246  0.54663715  0.07759207     1.37500
O88         O  0.67823882  0.49104279  0.08113922    -0.57700
O89         O  0.74093041  0.53731571  0.06613200    -0.56500
C90         C  0.64104854  0.56977601  0.04118649     0.77200
O91         O  0.71226791  0.54602017  0.03108144    -0.58900
O92         O  0.64990789  0.51722899  0.10853392    -0.57300
O93         O  0.68297107  0.59986307  0.09047613    -0.57300
O94         O  0.64071187  0.57488042  0.06788876    -0.56500
O95         O  0.50131387  0.88156026  0.08930763    -0.57700
C96         C  0.60840871  0.86452641  0.11287391     0.74900
O97         O  0.55499354  0.85110251  0.03141548    -0.58900
C98         C  0.50345985  0.90641222  0.10182354     0.74900
C99         C  0.57254482  0.92314117  0.04027329     0.77300
Cd100      Cd  0.55602172  0.87594666  0.07824452     1.37500
O101        O  0.58227069  0.86247969  0.12369627    -0.57700
O102        O  0.57947270  0.92289200  0.06642525    -0.56500
C103        C  0.54681121  0.82563418  0.04004823     0.77200
O104        O  0.55703166  0.90166242  0.03197355    -0.58900
O105        O  0.61014420  0.86965890  0.08612985    -0.57300
O106        O  0.52956360  0.91463032  0.10667493    -0.57300
O107        O  0.54257884  0.82288503  0.06714635    -0.56500
O108        O  0.70019155  0.98054842  0.38174461    -0.57700
C109        C  0.66735682  0.06375962  0.40125151     0.74900
O110        O  0.65484141  0.01287957  0.46918687    -0.58900
C111        C  0.69988801  0.95468248  0.39295440     0.74900
C112        C  0.73889953  0.01345596  0.46451389     0.77300
Cd113      Cd  0.68870329  0.00832876  0.42712890     1.37500
O114        O  0.66387640  0.03871921  0.38958923    -0.57700
O115        O  0.74231723  0.01663239  0.43741754    -0.56500
C116        C  0.63652753  0.99373262  0.46102613     0.77200
O117        O  0.71274934  0.00809005  0.47357444    -0.58900
O118        O  0.68410105  0.06368571  0.42264044    -0.57300
O119        O  0.69668093  0.95379155  0.42007019    -0.57300
O120        O  0.64158647  0.98269378  0.43642279    -0.56500
O121        O  0.56332619  0.38172515  0.08177219    -0.57700
C122        C  0.45754358  0.36717774  0.11309523     0.74900
O123        O  0.51184770  0.40569779  0.02799097    -0.58900
C124        C  0.56182973  0.40617140  0.09521960     0.74900
C125        C  0.51392386  0.32719909  0.03482558     0.77300
Cd126      Cd  0.50819089  0.37858679  0.07314768     1.37500
O127        O  0.48417514  0.36097101  0.11916917    -0.57700
O128        O  0.50358921  0.35210227  0.02703188    -0.56500
C129        C  0.49390294  0.42616108  0.03545593     0.77200
O130        O  0.52126375  0.32547734  0.06099167    -0.58900
O131        O  0.45416765  0.37764752  0.08807878    -0.57300
O132        O  0.53587004  0.41584585  0.10048396    -0.57300
O133        O  0.48346168  0.42502178  0.06102747    -0.56500
O134        O  0.40636157  0.53195275  0.39135738    -0.57700
C135        C  0.36764190  0.45144996  0.38531578     0.74900
O136        O  0.39896119  0.50414581  0.46895686    -0.58900
C137        C  0.40275451  0.55689576  0.40344554     0.74900
C138        C  0.32109362  0.50522214  0.46108646     0.77300
Cd139      Cd  0.37367324  0.50246610  0.42366427     1.37500
O140        O  0.36131702  0.47776368  0.37719536    -0.57700
O141        O  0.32106540  0.51830294  0.43669096    -0.56500
C142        C  0.41993180  0.48706507  0.46091689     0.77200
O143        O  0.34400201  0.49006704  0.46622385    -0.58900
O144        O  0.37521419  0.44900888  0.41119259    -0.57300
O145        O  0.38249395  0.55793054  0.42288122    -0.57300
O146        O  0.41997356  0.47849513  0.43506418    -0.56500
O147        O  0.49333832  0.19302169  0.37461798    -0.57700
C148        C  0.57592887  0.15118732  0.39720008     0.74900
O149        O  0.51994230  0.22831610  0.42808385    -0.58900
C150        C  0.46838987  0.18035091  0.37829113     0.74900
C151        C  0.50179181  0.12471745  0.45693706     0.77300
Cd152      Cd  0.51754501  0.17278605  0.41838070     1.37500
O153        O  0.55218150  0.14401574  0.38524952    -0.57700
O154        O  0.51598064  0.14716938  0.46511158    -0.56500
C155        C  0.51666025  0.22592105  0.45524975     0.77200
O156        O  0.49607730  0.12394120  0.43045519    -0.58900
O157        O  0.57302493  0.17093484  0.41631070    -0.57300
O158        O  0.46587556  0.16448388  0.40081125    -0.57300
O159        O  0.51317970  0.19969412  0.46464628    -0.56500
O160        O  0.42285773  0.02355925  0.09987715    -0.57700
C161        C  0.37207125  0.09599410  0.12287672     0.74900
O162        O  0.42225520  0.04784952  0.04701434    -0.58900
C163        C  0.41303557  0.99729670  0.09918953     0.74900
C164        C  0.32718564  0.03695197  0.04477034     0.77300
Cd165      Cd  0.37877302  0.04819938  0.08043205     1.37500
O166        O  0.35854904  0.07156079  0.12710965    -0.57700
O167        O  0.32409047  0.03833293  0.07199407    -0.56500
C168        C  0.41577911  0.07273215  0.03583486     0.77200
O169        O  0.35357473  0.03904010  0.03511451    -0.58900
O170        O  0.38843932  0.09711140  0.10040940    -0.57300
O171        O  0.38605059  0.99472104  0.09264036    -0.57300
O172        O  0.39264724  0.08572656  0.04570469    -0.56500
O173        O  0.00179750  0.17279610  0.09760125    -0.57700
C174        C  0.11042602  0.18466405  0.11544495     0.74900
O175        O  0.05124659  0.14571049  0.03820464    -0.58900
C176        C  0.00281359  0.14812815  0.11088922     0.74900
C177        C  0.04884255  0.22413147  0.04434722     0.77300
Cd178      Cd  0.05631420  0.17345069  0.08297635     1.37500
O179        O  0.08443848  0.18930974  0.12593403    -0.57700
O180        O  0.04599912  0.22758297  0.07143921    -0.56500
C181        C  0.07013821  0.12584415  0.04417621     0.77200
O182        O  0.05463562  0.19797176  0.03618278    -0.58900
O183        O  0.11152946  0.17601673  0.08961827    -0.57300
O184        O  0.02854838  0.13743776  0.11395748    -0.57300
O185        O  0.08107291  0.12714313  0.06891133    -0.56500
O186        O  0.15144006  0.02283345  0.39201698    -0.57700
C187        C  0.19696165  0.10420786  0.38364705     0.74900
O188        O  0.16055254  0.04945542  0.46639451    -0.58900
C189        C  0.15830803  0.99721419  0.40118667     0.74900
C190        C  0.23748668  0.04854502  0.45742663     0.77300
Cd191      Cd  0.18642360  0.05197861  0.42058818     1.37500
O192        O  0.20029370  0.07800040  0.37388749    -0.57700
O193        O  0.23983967  0.04006413  0.43134534    -0.56500
C194        C  0.13858569  0.06529069  0.45952297     0.77200
O195        O  0.21227227  0.05833908  0.46550944    -0.58900
O196        O  0.18992595  0.10594678  0.41009777    -0.57300
O197        O  0.18138031  0.99607957  0.41615351    -0.57300
O198        O  0.13843025  0.07479122  0.43382732    -0.56500
O199        O  0.16908476  0.56130862  0.07927853    -0.57700
C200        C  0.18403193  0.45378802  0.11532307     0.74900
O201        O  0.15851351  0.49461851  0.03031570    -0.58900
C202        C  0.14638520  0.56117359  0.09590739     0.74900
C203        C  0.22973802  0.51165860  0.04247657     0.77300
Cd204      Cd  0.17550706  0.50557957  0.07775941     1.37500
O205        O  0.19384628  0.47941229  0.12144846    -0.57700
O206        O  0.23124875  0.50860101  0.06963186    -0.56500
C207        C  0.13313181  0.48557965  0.03846044     0.77200
O208        O  0.20387582  0.51240437  0.03267516    -0.58900
O209        O  0.17000241  0.45235301  0.09222725    -0.57300
O210        O  0.14010295  0.53615564  0.10696775    -0.57300
O211        O  0.12714470  0.48618519  0.06521952    -0.56500
O212        O  0.99814954  0.37475089  0.40791165    -0.57700
C213        C  0.10677712  0.36695939  0.38049923     0.74900
O214        O  0.07596260  0.41964120  0.43427279    -0.58900
C215        C  0.99880602  0.39875725  0.39355268     0.74900
C216        C  0.05045567  0.32385666  0.45741481     0.77300
Cd217      Cd  0.05309565  0.37433597  0.41788657     1.37500
O218        O  0.08248503  0.35412586  0.37516939    -0.57700
O219        O  0.04499127  0.32022089  0.43095555    -0.56500
C220        C  0.06384085  0.41952981  0.45921917     0.77200
O221        O  0.05755053  0.34987146  0.46428775    -0.58900
O222        O  0.10611017  0.38269379  0.40292565    -0.57300
O223        O  0.02445187  0.40882755  0.38788470    -0.57300
O224        O  0.04502189  0.39930979  0.46440883    -0.56500
C225        C  0.08258728  0.45285178  0.53115805    -0.26200
C226        C  0.11233340  0.47327341  0.01797661    -0.14300
C227        C  0.11563086  0.47871008  0.98809239     0.36300
C228        C  0.09871809  0.46223568  0.96910724    -0.25700
C229        C  0.07306749  0.44079451  0.48131904    -0.14900
C230        C  0.06702667  0.43616701  0.51110742     0.37400
N231        N  0.04679467  0.41337929  0.52095131    -0.89200
H232        H  0.07948038  0.44814620  0.55395774     0.18500
H233        H  0.10204149  0.46565075  0.94613009     0.18500
N234        N  0.13700128  0.49989083  0.97705893    -0.88200
H235        H  0.02550565  0.41980133  0.51486276     0.35900
H236        H  0.04606948  0.41207928  0.54344624     0.41000
H237        H  0.13019839  0.52098589  0.98412044     0.40600
H238        H  0.13716723  0.50054100  0.95454858     0.35500
C239        C  0.04366862  0.27010086  0.47001259    -0.26200
C240        C  0.04894783  0.29924955  0.47922730    -0.14300
C241        C  0.05122251  0.30265138  0.01340982     0.36300
C242        C  0.05017141  0.27853282  0.03277506    -0.25700
C243        C  0.04657143  0.24921380  0.02322413    -0.14900
C244        C  0.04342536  0.24593884  0.48930548     0.37400
N245        N  0.03737237  0.21708287  0.47797806    -0.89200
H246        H  0.04003920  0.26585460  0.44744749     0.18500
H247        H  0.05348778  0.28271899  0.05540888     0.18500
N248        N  0.05661328  0.33157891  0.02492185    -0.88200
H249        H  0.01932446  0.20797942  0.48957168     0.35900
H250        H  0.05605405  0.20345439  0.48024050     0.41000
H251        H  0.03864078  0.34653882  0.51588665     0.40600
H252        H  0.07684711  0.33944412  0.01642717     0.35500
C253        C  0.11564385  0.06546245  0.00732614    -0.26200
C254        C  0.11581722  0.07387676  0.48125903    -0.14300
C255        C  0.09105344  0.09150324  0.47422753     0.36300
C256        C  0.07500893  0.10609518  0.49616506    -0.25700
C257        C  0.08065142  0.10397716  0.02249177    -0.14900
C258        C  0.10124708  0.08142992  0.02938425     0.37400
N259        N  0.10924785  0.07595270  0.05857258    -0.89200
H260        H  0.13242680  0.04925431  0.01308681     0.18500
H261        H  0.05746061  0.12142431  0.49033203     0.18500
N262        N  0.08289895  0.09576070  0.44490817    -0.88200
H263        H  0.13204745  0.07975988  0.06009455     0.35900
H264        H  0.10534145  0.05350423  0.06331942     0.41000
H265        H  0.08356111  0.11856679  0.44026748     0.40600
H266        H  0.06095754  0.08868016  0.44303896     0.35500
C267        C  0.31470244  0.04596417  0.48966813    -0.26200
C268        C  0.30193943  0.03441594  0.02454492    -0.14300
C269        C  0.27187356  0.03868441  0.03332804     0.36300
C270        C  0.24976406  0.04060090  0.01234102    -0.25700
C271        C  0.26224291  0.04707880  0.47807759    -0.14900
C272        C  0.29240086  0.04715432  0.46896404     0.37400
N273        N  0.30035793  0.04926052  0.43882849    -0.89200
H274        H  0.33779253  0.04609813  0.48241244     0.18500
H275        H  0.22689726  0.04463083  0.01922703     0.18500
N276        N  0.26384113  0.04160217  0.06335893    -0.88200
H277        H  0.32345159  0.04870511  0.43570541     0.35900
H278        H  0.29327141  0.07012982  0.43153656     0.41000
H279        H  0.26801016  0.02106693  0.07322201     0.40600
H280        H  0.24102420  0.04557424  0.06609566     0.35500
C281        C  0.42038060  0.10885690  0.99603082    -0.26200
C282        C  0.43369627  0.08632360  0.01230315    -0.14300
C283        C  0.47873248  0.09110686  0.52837727     0.36300
C284        C  0.49573974  0.10611000  0.50721796    -0.25700
C285        C  0.49035153  0.10223677  0.47783283    -0.14900
C286        C  0.43657881  0.12444564  0.97487074     0.37400
N287        N  0.42259783  0.14787319  0.95877680    -0.89200
H288        H  0.39725318  0.11470576  0.00009762     0.18500
H289        H  0.51196172  0.12218457  0.51394688     0.18500
N290        N  0.48441026  0.09585853  0.55818543    -0.88200
H291        H  0.40041318  0.15069790  0.96556998     0.35900
H292        H  0.42237361  0.14123728  0.93724520     0.41000
H293        H  0.48225698  0.11863384  0.56237183     0.40600
H294        H  0.50641077  0.08960102  0.56178399     0.35500
C295        C  0.26808660  0.51716759  0.47390282    -0.26200
C296        C  0.29609544  0.50757688  0.48278903    -0.14300
C297        C  0.30751472  0.49779156  0.01102197     0.36300
C298        C  0.28313162  0.49976528  0.03050769    -0.25700
C299        C  0.25636579  0.51327006  0.02267059    -0.14900
C300        C  0.24373592  0.51950693  0.49352842     0.37400
N301        N  0.21543022  0.52965956  0.48361721    -0.89200
H302        H  0.26506151  0.52267326  0.45143385     0.18500
H303        H  0.28496157  0.49000296  0.05178311     0.18500
N304        N  0.33415756  0.48421764  0.02116410    -0.88200
H305        H  0.21644630  0.53387149  0.46144887     0.35900
H306        H  0.21072281  0.55004392  0.49356758     0.41000
H307        H  0.35146523  0.49958079  0.01922704     0.40600
H308        H  0.33920215  0.46545039  0.00871739     0.35500
C309        C  0.52124507  0.24636187  0.50502143    -0.26200
C310        C  0.51728256  0.25178621  0.47546628    -0.14300
C311        C  0.51431552  0.28411471  0.96411123     0.36300
C312        C  0.51157704  0.30702542  0.98470062    -0.25700
C313        C  0.51731616  0.30198853  0.01400406    -0.14900
C314        C  0.52179102  0.26970918  0.52512353     0.37400
N315        N  0.52587186  0.26288609  0.55490441    -0.89200
H316        H  0.52399583  0.22372486  0.51274249     0.18500
H317        H  0.50478996  0.32902771  0.97770755     0.18500
N318        N  0.50734896  0.29002670  0.93460567    -0.88200
H319        H  0.54598729  0.25133820  0.55664288     0.35900
H320        H  0.50871978  0.24874495  0.56187262     0.41000
H321        H  0.52719167  0.28863219  0.92240888     0.40600
H322        H  0.49951531  0.31183221  0.93213529     0.35500
C323        C  0.46308702  0.47034932  0.02468578    -0.26200
C324        C  0.48367229  0.44883332  0.01491206    -0.14300
C325        C  0.48316772  0.44145174  0.48848510     0.36300
C326        C  0.46519219  0.45762313  0.46997516    -0.25700
C327        C  0.44219761  0.47595650  0.48087105    -0.14900
C328        C  0.44642487  0.48695298  0.00522570     0.37400
N329        N  0.42384917  0.50725571  0.01575838    -0.89200
H330        H  0.45849788  0.47284871  0.04757512     0.18500
H331        H  0.46836531  0.45458118  0.44695929     0.18500
N332        N  0.50556432  0.42188401  0.47666251    -0.88200
H333        H  0.43037515  0.52870869  0.00954046     0.35900
H334        H  0.42266655  0.50714934  0.03827386     0.41000
H335        H  0.52020818  0.43457568  0.46381369     0.40600
H336        H  0.49529468  0.40651145  0.46343150     0.35500
C337        C  0.65145445  0.11641599  0.40999876    -0.26200
C338        C  0.65005584  0.09081990  0.39280824    -0.14300
C339        C  0.62801364  0.08962408  0.37170576     0.36300
C340        C  0.60553024  0.11166079  0.37131284    -0.25700
C341        C  0.60457814  0.13493050  0.39146685    -0.14900
C342        C  0.62905053  0.13837281  0.40950683     0.37400
N343        N  0.63035252  0.16304645  0.42881771    -0.89200
H344        H  0.66868240  0.11833228  0.42568546     0.18500
H345        H  0.58746365  0.10932500  0.35660280     0.18500
N346        N  0.62722132  0.06501215  0.35210480    -0.88200
H347        H  0.65018487  0.17441464  0.42441803     0.35900
H348        H  0.63099615  0.15468761  0.44985204     0.41000
H349        H  0.64640080  0.06607199  0.33890021     0.40600
H350        H  0.60917976  0.06706017  0.33853848     0.35500
C351        C  0.45144268  0.92176657  0.09202494    -0.26200
C352        C  0.47741004  0.92643726  0.10739949    -0.14300
C353        C  0.47992405  0.95301437  0.12337961     0.36300
C354        C  0.45790857  0.97528386  0.12130967    -0.25700
C355        C  0.43289293  0.97135577  0.10437058    -0.14900
C356        C  0.42945695  0.94386098  0.09009869     0.37400
N357        N  0.40508792  0.93844558  0.07171831    -0.89200
H358        H  0.44911734  0.90163019  0.07957297     0.18500
H359        H  0.46067728  0.99617079  0.13246073     0.18500
N360        N  0.50516977  0.95769573  0.14102676    -0.88200
H361        H  0.40499521  0.95477700  0.05558275     0.35900
H362        H  0.38529599  0.93975793  0.08398040     0.41000
H363        H  0.50415157  0.94188354  0.15762969     0.40600
H364        H  0.50391167  0.97857686  0.15085320     0.35500
C365        C  0.57377780  0.94635359  0.49043702    -0.26200
C366        C  0.58383618  0.94591212  0.01993101    -0.14300
C367        C  0.60251169  0.96897925  0.02899593     0.36300
C368        C  0.61931574  0.98478460  0.00833428    -0.25700
C369        C  0.61231834  0.98282065  0.48031958    -0.14900
C370        C  0.59059950  0.96313601  0.47047936     0.37400
N371        N  0.58659266  0.95898326  0.44029356    -0.89200
H372        H  0.55873420  0.92969335  0.48260306     0.18500
H373        H  0.63529130  0.00092496  0.01541956     0.18500
N374        N  0.60549345  0.97533054  0.05907463    -0.88200
H375        H  0.56444358  0.96392171  0.43591315     0.35900
H376        H  0.59043106  0.93652388  0.43557169     0.41000
H377        H  0.58490839  0.98323886  0.06685734     0.40600
H378        H  0.62070803  0.99248385  0.06195415     0.35500
C379        C  0.61013394  0.46946851  0.12108372    -0.26200
C380        C  0.63597174  0.46565679  0.10369251    -0.14300
C381        C  0.63943723  0.43874466  0.08824310     0.36300
C382        C  0.61585182  0.41824629  0.08765368    -0.25700
C383        C  0.58866158  0.42388343  0.10234463    -0.14900
C384        C  0.58654028  0.44896521  0.12063098     0.37400
N385        N  0.55992515  0.45430796  0.13773422    -0.89200
H386        H  0.60747729  0.48949220  0.13381158     0.18500
H387        H  0.61824232  0.39878537  0.07408352     0.18500
N388        N  0.66628384  0.43265491  0.07199234    -0.88200
H389        H  0.56175693  0.47384703  0.14966360     0.35900
H390        H  0.55782324  0.43685201  0.15263855     0.41000
H391        H  0.66088793  0.42990199  0.05043083     0.40600
H392        H  0.67504840  0.41250633  0.07942287     0.35500
C393        C  0.44191016  0.63198551  0.40634251    -0.26200
C394        C  0.46980313  0.62472034  0.39371909    -0.14300
C395        C  0.47334918  0.59677522  0.38004294     0.36300
C396        C  0.45018887  0.57591881  0.38190850    -0.25700
C397        C  0.42329057  0.58215789  0.39685177    -0.14900
C398        C  0.41872274  0.61105763  0.40799347     0.37400
N399        N  0.39087638  0.61915619  0.42152434    -0.89200
H400        H  0.43848593  0.65348970  0.41640194     0.18500
H401        H  0.45387546  0.55400546  0.37280952     0.18500
N402        N  0.50083285  0.58905831  0.36529877    -0.88200
H403        H  0.38334377  0.63759816  0.90702662     0.35900
H404        H  0.39487157  0.62583630  0.44258059     0.41000
H405        H  0.50315470  0.60321652  0.34743562     0.40600
H406        H  0.50008584  0.56738469  0.35725639     0.35500
C407        C  0.53242914  0.74916382  0.00708910    -0.26200
C408        C  0.53853341  0.75176152  0.47844251    -0.14300
C409        C  0.53863618  0.78176453  0.46947013     0.36300
C410        C  0.55217453  0.80538566  0.99004876    -0.25700
C411        C  0.54335095  0.80075940  0.01910162    -0.14900
C412        C  0.53256635  0.77239384  0.02743633     0.37400
N413        N  0.52180343  0.76715386  0.05644321    -0.89200
H414        H  0.53796483  0.72250420  0.51547913     0.18500
H415        H  0.56028146  0.82697388  0.98299726     0.18500
N416        N  0.53828196  0.78933433  0.43949269    -0.88200
H417        H  0.51535252  0.74497023  0.05921727     0.35900
H418        H  0.50258275  0.78006121  0.05960002     0.41000
H419        H  0.55732205  0.80173879  0.43440165     0.40600
H420        H  0.51973256  0.80290651  0.43612705     0.35500
C421        C  0.58637415  0.62429848  0.00889653    -0.26200
C422        C  0.58045954  0.61184180  0.48072462    -0.14300
C423        C  0.59617860  0.58580451  0.47274029     0.36300
C424        C  0.61350538  0.57132591  0.49314289    -0.25700
C425        C  0.62015527  0.58425005  0.02149303    -0.14900
C426        C  0.60283804  0.60952274  0.02954287     0.37400
N427        N  0.60251917  0.62177178  0.05795546    -0.89200
H428        H  0.57391080  0.64406670  0.01520485     0.18500
H429        H  0.62662258  0.55202634  0.48673821     0.18500
N430        N  0.59492546  0.57450246  0.44391414    -0.88200
H431        H  0.62412732  0.62788473  0.06296303     0.35900
H432        H  0.59463973  0.60569338  0.07258238     0.41000
H433        H  0.57295843  0.56822488  0.44060858     0.40600
H434        H  0.60787981  0.55520580  0.44165311     0.35500
C435        C  0.11455351  0.97448445  0.37802425    -0.26200
C436        C  0.13842628  0.97109414  0.39664895    -0.14300
C437        C  0.13955357  0.94502888  0.41386532     0.36300
C438        C  0.11579762  0.92458806  0.41397603    -0.25700
C439        C  0.09069865  0.92943475  0.39710117    -0.14900
C440        C  0.09087932  0.95417199  0.37814233     0.37400
N441        N  0.06658504  0.95943369  0.35950352    -0.89200
H442        H  0.11335309  0.99396763  0.36422210     0.18500
H443        H  0.11633601  0.90570332  0.42858438     0.18500
N444        N  0.16399354  0.93982195  0.43233842    -0.88200
H445        H  0.07500579  0.95996289  0.33829153     0.35900
H446        H  0.05755762  0.98040838  0.36425435     0.41000
H447        H  0.17353741  0.91925362  0.42689569     0.40600
H448        H  0.15565461  0.93833432  0.45354112     0.35500
C449        C  0.95450353  0.08317652  0.13451218    -0.26200
C450        C  0.92933799  0.08806626  0.11776000    -0.14300
C451        C  0.92560791  0.11671888  0.10517075     0.36300
C452        C  0.94858875  0.13771372  0.10624183    -0.25700
C453        C  0.97558520  0.13087480  0.11931754    -0.14900
C454        C  0.97748099  0.10429013  0.13562632     0.37400
N455        N  0.00339860  0.09810393  0.15206837    -0.89200
H456        H  0.95722266  0.06198080  0.14540717     0.18500
H457        H  0.94624523  0.15847046  0.09448414     0.18500
N458        N  0.89967013  0.12472975  0.08969234    -0.88200
H459        H  0.00150882  0.07748774  0.16251917     0.35900
H460        H  0.00424371  0.11418003  0.16821006     0.41000
H461        H  0.88097079  0.12154404  0.10321320     0.40600
H462        H  0.89831438  0.11109730  0.07164179     0.35500
C463        C  0.81581269  0.01270217  0.49714360    -0.26200
C464        C  0.80877523  0.01244216  0.02642876    -0.14300
C465        C  0.77864433  0.00837680  0.03460676     0.36300
C466        C  0.75694389  0.00860213  0.01335641    -0.25700
C467        C  0.76361139  0.01569642  0.48505865    -0.14900
C468        C  0.79371228  0.01211504  0.47633807     0.37400
N469        N  0.80180332  0.00689067  0.44661904    -0.89200
H470        H  0.83880639  0.00966372  0.49018988     0.18500
H471        H  0.73392334  0.00528503  0.01997090     0.18500
N472        N  0.77014566  0.00336123  0.06431110    -0.88200
H473        H  0.82458059  0.00252057  0.44421048     0.35900
H474        H  0.79793004  0.02666815  0.43531659     0.41000
H475        H  0.77922322  0.98288491  0.07047627     0.40600
H476        H  0.74708469  0.00128443  0.06674526     0.35500
C477        C  0.94933890  0.99360810  0.49642951    -0.26200
C478        C  0.94807253  0.97827981  0.02470466    -0.14300
C479        C  0.97140465  0.95858649  0.03134745     0.36300
C480        C  0.98593253  0.94291291  0.00903063    -0.25700
C481        C  0.98235867  0.95327973  0.48191754    -0.14900
C482        C  0.96427226  0.97772109  0.47456410     0.37400
N483        N  0.95983800  0.98561293  0.44506590    -0.89200
H484        H  0.93374227  0.01092217  0.49052049     0.18500
H485        H  0.00295815  0.92679040  0.01430938     0.18500
N486        N  0.97973854  0.95403796  0.06070089    -0.88200
H487        H  0.96632700  0.00775921  0.44207899     0.35900
H488        H  0.93712199  0.98427132  0.44118003     0.41000
H489        H  0.98792585  0.97424296  0.06812508     0.40600
H490        H  0.99715090  0.93859568  0.06184815     0.35500
C491        C  0.10622442  0.63601382  0.08613011    -0.26200
C492        C  0.08024678  0.63124944  0.10302423    -0.14300
C493        C  0.07867547  0.60570196  0.12088916     0.36300
C494        C  0.10173823  0.58441451  0.11959173    -0.25700
C495        C  0.12652820  0.58768807  0.10071059    -0.14900
C496        C  0.12908320  0.61453710  0.08447803     0.37400
N497        N  0.15369707  0.62014851  0.06500953    -0.89200
H498        H  0.10785212  0.65552718  0.07234475     0.18500
H499        H  0.09952508  0.56435481  0.13252239     0.18500
N500        N  0.05313410  0.60088341  0.13960161    -0.88200
H501        H  0.15408288  0.60399611  0.04890301     0.35900
H502        H  0.17331890  0.61885722  0.07646153     0.41000
H503        H  0.05268576  0.61785132  0.15492625     0.40600
H504        H  0.05514849  0.58082292  0.15093931     0.35500
C505        C  0.01145107  0.74916924  0.98771224    -0.26200
C506        C  0.00672828  0.75525095  0.01725117    -0.14300
C507        C  0.00496415  0.78517359  0.02618441     0.36300
C508        C  0.00758733  0.80812750  0.00557670    -0.25700
C509        C  0.00963926  0.80549606  0.47942994    -0.14900
C510        C  0.00608372  0.77604958  0.46971339     0.37400
N511        N  0.00427019  0.76993478  0.43947954    -0.89200
H512        H  0.00037247  0.73020615  0.48220684     0.18500
H513        H  0.00573893  0.83097849  0.01278009     0.18500
N514        N  0.99983477  0.79228615  0.05605632    -0.88200
H515        H  0.99965966  0.74744605  0.43613958     0.35900
H516        H  0.02532561  0.77364835  0.43010658     0.41000
H517        H  0.97845119  0.78505679  0.06191237     0.40600
H518        H  0.99992602  0.81533417  0.05911277     0.35500
C519        C  0.92159260  0.43435954  0.39770598    -0.26200
C520        C  0.92723128  0.46125585  0.38288620    -0.14300
C521        C  0.95405265  0.46385921  0.36657092     0.36300
C522        C  0.97571225  0.44130362  0.36793049    -0.25700
C523        C  0.97173979  0.41618421  0.38582190    -0.14900
C524        C  0.94346594  0.41200408  0.39956871     0.37400
N525        N  0.93681225  0.38646316  0.41714931    -0.89200
H526        H  0.90091965  0.43164895  0.40996254     0.18500
H527        H  0.99681180  0.44477316  0.35661188     0.18500
N528        N  0.96061081  0.49040766  0.35043263    -0.88200
H529        H  0.95099313  0.38608590  0.43456133     0.35900
H530        H  0.94033010  0.36733488  0.40476647     0.41000
H531        H  0.96513123  0.48438923  0.32903453     0.40600
H532        H  0.97985621  0.49977074  0.35851991     0.35500
C533        C  0.78056619  0.53524949  0.46606636    -0.26200
C534        C  0.80931326  0.54132236  0.47515725    -0.14300
C535        C  0.81733618  0.54146766  0.00681637     0.36300
C536        C  0.79295802  0.54121178  0.02672365    -0.25700
C537        C  0.76366712  0.53770887  0.01764281    -0.14900
C538        C  0.75617262  0.53460741  0.48549346     0.37400
N539        N  0.72776341  0.52798014  0.47405112    -0.89200
H540        H  0.77684763  0.53115126  0.44348958     0.18500
H541        H  0.79684609  0.54442244  0.04939987     0.18500
N542        N  0.84701650  0.54490970  0.01689528    -0.88200
H543        H  0.71351391  0.54617935  0.47734391     0.35900
H544        H  0.71913966  0.50913088  0.48454134     0.41000
H545        H  0.85866405  0.52520998  0.01227717     0.40600
H546        H  0.84680069  0.54724455  0.03928289     0.35500
C547        C  0.96186351  0.58731788  0.02441044    -0.26200
C548        C  0.98057266  0.61060197  0.01543623    -0.14300
C549        C  0.98225154  0.61568701  0.48198045     0.36300
C550        C  0.96930953  0.59691227  0.46210552    -0.25700
C551        C  0.95274391  0.57211240  0.47137048    -0.14900
C552        C  0.94669711  0.57045258  0.00440836     0.37400
N553        N  0.92569223  0.54839553  0.01431151    -0.89200
H554        H  0.95752035  0.58350761  0.04720218     0.18500
H555        H  0.97030191  0.60320876  0.43953702     0.18500
N556        N  0.99741267  0.64190087  0.47196568    -0.88200
H557        H  0.92420681  0.54776089  0.03681471     0.35900
H558        H  0.93393739  0.52761642  0.00778429     0.41000
H559        H  0.98264886  0.65469633  0.46000222     0.40600
H560        H  0.01496016  0.63525707  0.45817404     0.35500
C561        C  0.90804156  0.85538549  0.32245049    -0.26200
C562        C  0.87884192  0.85285887  0.33469501    -0.14300
C563        C  0.87575769  0.85826530  0.36475836     0.36300
C564        C  0.90085367  0.86573103  0.38088358    -0.25700
C565        C  0.92961140  0.86738492  0.36814971    -0.14900
C566        C  0.93272293  0.86300205  0.33835277     0.37400
N567        N  0.96110155  0.86583213  0.32384437    -0.89200
H568        H  0.91266971  0.85036940  0.30003942     0.18500
H569        H  0.89786150  0.86917427  0.40385203     0.18500
N570        N  0.84760071  0.85534669  0.37953710    -0.88200
H571        H  0.95928492  0.88220900  0.30788124     0.35900
H572        H  0.96620504  0.84562393  0.31372059     0.41000
H573        H  0.84235121  0.87578632  0.38913790     0.40600
H574        H  0.84988238  0.83970243  0.39610237     0.35500
C575        C  0.85915652  0.87367482  0.23916882    -0.26200
C576        C  0.84679521  0.84974897  0.22350394    -0.14300
C577        C  0.84490847  0.82320362  0.23930072     0.36300
C578        C  0.86031493  0.81922554  0.26435672    -0.25700
C579        C  0.86215492  0.84243508  0.28349647    -0.14900
C580        C  0.86291842  0.87128999  0.26957832     0.37400
N581        N  0.86709713  0.89843489  0.28491063    -0.89200
H582        H  0.86340121  0.89499179  0.22919346     0.18500
H583        H  0.86278951  0.79725332  0.27141332     0.18500
N584        N  0.82453075  0.80110904  0.23169894    -0.88200
H585        H  0.88831023  0.89886108  0.29325307     0.35900
H586        H  0.85122253  0.90018814  0.30155404     0.41000
H587        H  0.83657567  0.78169235  0.23060874     0.40600
H588        H  0.80781074  0.79834766  0.24716040     0.35500
C589        C  0.86528813  0.87641030  0.15095365    -0.26200
C590        C  0.84678346  0.87924870  0.17582551    -0.14300
C591        C  0.83649616  0.90892898  0.18304772     0.36300
C592        C  0.84507275  0.93325310  0.16589588    -0.25700
C593        C  0.86298678  0.93006507  0.14110196    -0.14900
C594        C  0.87337946  0.90119044  0.13360808     0.37400
N595        N  0.89143945  0.89678942  0.10793036    -0.89200
H596        H  0.87256100  0.85462245  0.14396225     0.18500
H597        H  0.83668632  0.95512010  0.17183520     0.18500
N598        N  0.81622532  0.91589907  0.20673893    -0.88200
H599        H  0.89577734  0.87415327  0.10459580     0.35900
H600        H  0.91199190  0.90674468  0.11121559     0.41000
H601        H  0.81199872  0.89841658  0.22092208     0.40600
H602        H  0.79590243  0.92229100  0.19818713     0.35500
C603        C  0.77377514  0.84054968  0.29338132    -0.26200
C604        C  0.75786368  0.85892187  0.31243991    -0.14300
C605        C  0.77695400  0.87770134  0.32885852     0.36300
C606        C  0.80827552  0.87112197  0.33065977    -0.25700
C607        C  0.82093126  0.84480925  0.31862512    -0.14900
C608        C  0.80080608  0.82847400  0.30176988     0.37400
N609        N  0.80296870  0.79710284  0.29867305    -0.89200
H610        H  0.76141765  0.82784364  0.27838371     0.18500
H611        H  0.82222653  0.88674987  0.34144661     0.18500
N612        N  0.76615854  0.90499324  0.34099030    -0.88200
H613        H  0.80067348  0.78678380  0.31865666     0.35900
H614        H  0.82309700  0.79108681  0.29059993     0.41000
H615        H  0.77161064  0.90516136  0.36271803     0.40600
H616        H  0.77762523  0.92247878  0.33081465     0.35500
C617        C  0.71627272  0.87537365  0.36593159    -0.26200
C618        C  0.70891120  0.87780842  0.33656794    -0.14300
C619        C  0.69323363  0.90405128  0.32832717     0.36300
C620        C  0.69131096  0.92854495  0.34698573    -0.25700
C621        C  0.70184429  0.92717176  0.37500235    -0.14900
C622        C  0.71264675  0.89952138  0.38523227     0.37400
N623        N  0.72184341  0.89650520  0.41447971    -0.89200
H624        H  0.72710030  0.85524514  0.37332159     0.18500
H625        H  0.68079221  0.94883589  0.33951637     0.18500
N626        N  0.67815444  0.90619404  0.30170996    -0.88200
H627        H  0.73114471  0.87543806  0.41793143     0.35900
H628        H  0.70271584  0.89757840  0.42774912     0.41000
H629        H  0.65550365  0.90928005  0.30646706     0.40600
H630        H  0.68567708  0.92519724  0.29070423     0.35500
C631        C  0.71009793  0.87349361  0.23353464    -0.26200
C632        C  0.69537768  0.84744131  0.22354813    -0.14300
C633        C  0.67919880  0.83199153  0.24522619     0.36300
C634        C  0.68522609  0.83696543  0.27457538    -0.25700
C635        C  0.70838866  0.85615926  0.28374079    -0.14900
C636        C  0.71896598  0.87633946  0.26229813     0.37400
N637        N  0.73940394  0.89938727  0.26918745    -0.89200
H638        H  0.71932493  0.88920571  0.21794475     0.18500
H639        H  0.67139040  0.82483613  0.28947170     0.18500
N640        N  0.65515023  0.81313990  0.23821029    -0.88200
H641        H  0.73035812  0.91982591  0.26292495     0.35900
H642        H  0.75893031  0.89601683  0.25685398     0.41000
H643        H  0.63561286  0.82259875  0.24688430     0.40600
H644        H  0.65790020  0.79262574  0.24830424     0.35500
C645        C  0.68555935  0.84424843  0.13983640    -0.26200
C646        C  0.68363772  0.85355934  0.16896656    -0.14300
C647        C  0.65880850  0.87236672  0.17657492     0.36300
C648        C  0.63503717  0.87567566  0.15774305    -0.25700
C649        C  0.63538477  0.86215685  0.13069910    -0.14900
C650        C  0.66174233  0.84758762  0.12116245     0.37400
N651        N  0.66430871  0.83407175  0.09335175    -0.89200
H652        H  0.70455750  0.83140973  0.13217662     0.18500
H653        H  0.61581428  0.88875202  0.16461996     0.18500
N654        N  0.65664281  0.88777746  0.20342657    -0.88200
H655        H  0.66242631  0.85066644  0.07764247     0.35900
H656        H  0.64690114  0.81897770  0.09137784     0.41000
H657        H  0.63725497  0.88093315  0.21445534     0.40600
H658        H  0.65479550  0.91058516  0.19913554     0.35500
C659        C  0.75131132  0.86059998  0.16808995    -0.26200
C660        C  0.73719694  0.84334727  0.18991140    -0.14300
C661        C  0.75582562  0.83213904  0.21201017     0.36300
C662        C  0.78300520  0.84522532  0.21570056    -0.25700
C663        C  0.79959952  0.85489091  0.19172807    -0.14900
C664        C  0.78278884  0.86321783  0.16701183     0.37400
N665        N  0.79731867  0.87350765  0.14090781    -0.89200
H666        H  0.73863582  0.86925311  0.15049075     0.18500
H667        H  0.79229722  0.84371256  0.23660092     0.18500
N668        N  0.74870447  0.80719473  0.23048072    -0.88200
H669        H  0.78174876  0.87952837  0.12562185     0.35900
H670        H  0.80936406  0.85556377  0.13221106     0.41000
H671        H  0.74478052  0.78820860  0.21851618     0.40600
H672        H  0.73069907  0.81101920  0.24425652     0.35500
C673        C  0.68307140  0.77715433  0.33021565    -0.26200
C674        C  0.70383828  0.75937447  0.31309826    -0.14300
C675        C  0.73029792  0.77445870  0.30494019     0.36300
C676        C  0.73702943  0.79966300  0.32056915    -0.25700
C677        C  0.71572576  0.82116343  0.32652666    -0.14900
C678        C  0.68792472  0.80843391  0.33511244     0.37400
N679        N  0.66539073  0.82644739  0.34914006    -0.89200
H680        H  0.66330511  0.76761287  0.33988955     0.18500
H681        H  0.75844380  0.80274401  0.32888601     0.18500
N682        N  0.75197709  0.76363647  0.28402260    -0.88200
H683        H  0.64673171  0.81357392  0.35443716     0.35900
H684        H  0.65841427  0.84273398  0.33464506     0.41000
H685        H  0.74458210  0.74618898  0.27173995     0.40600
H686        H  0.77019040  0.75523309  0.29455063     0.35500
C687        C  0.62094034  0.71164608  0.33665670    -0.26200
C688        C  0.62461435  0.69536823  0.36208558    -0.14300
C689        C  0.65359501  0.68592409  0.36899462     0.36300
C690        C  0.67810383  0.69392200  0.35120178    -0.25700
C691        C  0.67489978  0.71214970  0.32661865    -0.14900
C692        C  0.64535637  0.71997205  0.31899510     0.37400
N693        N  0.63992866  0.73801782  0.29415142    -0.89200
H694        H  0.59892031  0.71883704  0.33069693     0.18500
H695        H  0.69981619  0.68620282  0.35738416     0.18500
N696        N  0.65851296  0.66837213  0.39427493    -0.88200
H697        H  0.62892809  0.75747438  0.30081632     0.35900
H698        H  0.62563639  0.72633733  0.28101058     0.41000
H699        H  0.67312322  0.67993348  0.40720147     0.40600
H700        H  0.66887052  0.64846732  0.38792663     0.35500
C701        C  0.69918289  0.68090288  0.23465317    -0.26200
C702        C  0.69903866  0.70567934  0.21545581    -0.14300
C703        C  0.68400356  0.73017817  0.22849988     0.36300
C704        C  0.69348309  0.73780002  0.25565658    -0.25700
C705        C  0.69804606  0.71518300  0.27636944    -0.14900
C706        C  0.69604371  0.68524201  0.26504954     0.37400
N707        N  0.69106072  0.65920654  0.28274120    -0.89200
H708        H  0.70224554  0.65852162  0.22703479     0.18500
H709        H  0.69035962  0.76053328  0.26214103     0.18500
N710        N  0.65200008  0.73015300  0.22776196    -0.88200
H711        H  0.70757283  0.64341763  0.27779874     0.35900
H712        H  0.69284040  0.66386534  0.30446842     0.41000
H713        H  0.64415082  0.71257583  0.21545230     0.40600
H714        H  0.64401932  0.75031779  0.21986946     0.35500
C715        C  0.71812906  0.65084060  0.17394292    -0.26200
C716        C  0.70451912  0.67847910  0.16656947    -0.14300
C717        C  0.68674138  0.67832401  0.14175859     0.36300
C718        C  0.68390487  0.65197426  0.12550804    -0.25700
C719        C  0.69869829  0.62529859  0.13271175    -0.14900
C720        C  0.71592441  0.62505289  0.15735736     0.37400
N721        N  0.73243623  0.59900901  0.16519602    -0.89200
H722        H  0.73313212  0.64950334  0.19166364     0.18500
H723        H  0.67028004  0.65267163  0.10666219     0.18500
N724        N  0.67189079  0.70460255  0.13218529    -0.88200
H725        H  0.72579031  0.59283465  0.18613536     0.35900
H726        H  0.75495221  0.60459810  0.16534051     0.41000
H727        H  0.64914079  0.70014369  0.13167366     0.40600
H728        H  0.67946473  0.70942690  0.11119044     0.35500
C729        C  0.67842907  0.75252673  0.17351336    -0.26200
C730        C  0.70667064  0.73875883  0.16968385    -0.14300
C731        C  0.72818194  0.75924049  0.15933928     0.36300
C732        C  0.72595022  0.78910564  0.16714163    -0.25700
C733        C  0.70121771  0.80168381  0.18285190    -0.14900
C734        C  0.67520699  0.78342319  0.18050837     0.37400
N735        N  0.64536474  0.79479595  0.18294000    -0.89200
H736        H  0.65882416  0.73879231  0.17390863     0.18500
H737        H  0.74345969  0.80276942  0.15801846     0.18500
N738        N  0.74759778  0.75240088  0.13532208    -0.88200
H739        H  0.63562345  0.79205442  0.16297187     0.35900
H740        H  0.64479070  0.81742905  0.18703552     0.41000
H741        H  0.76897119  0.76006236  0.13920410     0.40600
H742        H  0.74012623  0.76411915  0.11737343     0.35500
C743        C  0.78036741  0.72745164  0.34108793    -0.26200
C744        C  0.79849266  0.70799231  0.32409350    -0.14300
C745        C  0.78163385  0.68554403  0.31011259     0.36300
C746        C  0.75128816  0.69047825  0.30488485    -0.25700
C747        C  0.73365887  0.71177866  0.32010018    -0.14900
C748        C  0.74905037  0.72602626  0.34260172     0.37400
N749        N  0.73408254  0.74049102  0.36655282    -0.89200
H750        H  0.78908389  0.74386715  0.35431216     0.18500
H751        H  0.74226457  0.67600525  0.28945331     0.18500
N752        N  0.79278415  0.65597623  0.30440575    -0.88200
H753        H  0.73906267  0.76315869  0.36610879     0.35900
H754        H  0.71112670  0.73831248  0.36607566     0.41000
H755        H  0.81514004  0.65357476  0.30829294     0.40600
H756        H  0.78937706  0.64999027  0.28318694     0.35500
C757        C  0.87632840  0.67392385  0.34169765    -0.26200
C758        C  0.84589441  0.68201861  0.34295130    -0.14300
C759        C  0.82733322  0.66491242  0.36240134     0.36300
C760        C  0.83734424  0.63777298  0.37342694    -0.25700
C761        C  0.86647299  0.62793198  0.36890757    -0.14900
C762        C  0.88685990  0.64724183  0.35458087     0.37400
N763        N  0.91781207  0.63935904  0.35218116    -0.89200
H764        H  0.89174385  0.68753939  0.32921659     0.18500
H765        H  0.82207411  0.62459750  0.38666065     0.18500
N766        N  0.79848428  0.67480370  0.37215325    -0.88200
H767        H  0.92633744  0.64020735  0.37285304     0.35900
H768        H  0.92949552  0.65528079  0.33994546     0.41000
H769        H  0.79846688  0.67673488  0.39457697     0.40600
H770        H  0.78295969  0.65856847  0.36704006     0.35500
C771        C  0.87508131  0.75034320  0.31859771    -0.26200
C772        C  0.84945402  0.73893656  0.33340422    -0.14300
C773        C  0.83943086  0.75870262  0.35564548     0.36300
C774        C  0.84197319  0.79006852  0.35114437    -0.25700
C775        C  0.85917359  0.80205614  0.32770123    -0.14900
C776        C  0.88088291  0.78149147  0.31691850     0.37400
N777        N  0.90824239  0.79186165  0.30407253    -0.89200
H778        H  0.88993452  0.73521394  0.30725004     0.18500
H779        H  0.82907338  0.80461229  0.36510592     0.18500
N780        N  0.83145761  0.74803499  0.38409237    -0.88200
H781        H  0.91094819  0.78328390  0.28335369     0.35900
H782        H  0.92556906  0.78337443  0.31623774     0.41000
H783        H  0.82894803  0.72496534  0.38411379     0.40600
H784        H  0.81154579  0.75786635  0.39139194     0.35500
C785        C  0.87118149  0.77164600  0.18159950    -0.26200
C786        C  0.84542654  0.75319836  0.18566325    -0.14300
C787        C  0.81822125  0.76931043  0.18118482     0.36300
C788        C  0.81838131  0.79895322  0.17069324    -0.25700
C789        C  0.84180298  0.81867535  0.17722203    -0.14900
C790        C  0.86958163  0.80365429  0.17989569     0.37400
N791        N  0.89608895  0.82063247  0.18292199    -0.89200
H792        H  0.89303373  0.76227350  0.18270984     0.18500
H793        H  0.79677913  0.80764685  0.16583233     0.18500
N794        N  0.79205221  0.76292775  0.19820561    -0.88200
H795        H  0.91111510  0.81439124  0.16643211     0.35900
H796        H  0.90537990  0.81483253  0.20256460     0.41000
H797        H  0.79651248  0.75171217  0.21732189     0.40600
H798        H  0.77641079  0.75269113  0.18605951     0.35500
C799        C  0.83495853  0.72976135  0.27304509    -0.26200
C800        C  0.84268964  0.70500518  0.28973154    -0.14300
C801        C  0.85730217  0.68169909  0.27298128     0.36300
C802        C  0.86113781  0.68532846  0.24197139    -0.25700
C803        C  0.85355063  0.71295656  0.22826308    -0.14900
C804        C  0.85100236  0.73598330  0.24770002     0.37400
N805        N  0.87752632  0.75258062  0.25185912    -0.89200
H806        H  0.82206609  0.74685475  0.28291450     0.18500
H807        H  0.86752386  0.66634417  0.22888519     0.18500
N808        N  0.86572046  0.65397902  0.28568434    -0.88200
H809        H  0.88509091  0.76257999  0.23286484     0.35900
H810        H  0.89417930  0.73831356  0.25912310     0.41000
H811        H  0.88847180  0.65086017  0.28152607     0.40600
H812        H  0.85451898  0.63695570  0.27533023     0.35500
C813        C  0.92719681  0.70134958  0.16408018    -0.26200
C814        C  0.92198777  0.69019764  0.13677606    -0.14300
C815        C  0.89237559  0.68208100  0.13078193     0.36300
C816        C  0.86901782  0.68786257  0.15098792    -0.25700
C817        C  0.87345835  0.70340045  0.17693091    -0.14900
C818        C  0.90403438  0.70741202  0.18406379     0.37400
N819        N  0.91251324  0.71753196  0.21172641    -0.89200
H820        H  0.94976604  0.70594218  0.17018385     0.18500
H821        H  0.84748787  0.67979142  0.14567938     0.18500
N822        N  0.88500395  0.66804041  0.10436217    -0.88200
H823        H  0.92631038  0.73606148  0.20905831     0.35900
H824        H  0.92504618  0.70069876  0.22132006     0.41000
H825        H  0.89719432  0.64823465  0.10238567     0.40600
H826        H  0.89071057  0.68230567  0.08725173     0.35500
C827        C  0.80046523  0.70611150  0.16254093    -0.26200
C828        C  0.81444830  0.70401701  0.18958966    -0.14300
C829        C  0.79433804  0.69471655  0.21228556     0.36300
C830        C  0.76366514  0.69982269  0.21084409    -0.25700
C831        C  0.74961567  0.70354883  0.18458979    -0.14900
C832        C  0.76935457  0.70069517  0.15974867     0.37400
N833        N  0.75895962  0.68990450  0.13265162    -0.89200
H834        H  0.81315690  0.71268421  0.14347336     0.18500
H835        H  0.75127325  0.69821357  0.23087972     0.18500
N836        N  0.80360850  0.67779411  0.23619408    -0.88200
H837        H  0.77585523  0.69106476  0.11675831     0.35900
H838        H  0.74105293  0.70223423  0.12532183     0.41000
H839        H  0.79603647  0.68910251  0.25451474     0.40600
H840        H  0.79312550  0.65710884  0.23544791     0.35500
C841        C  0.18772981  0.36883483  0.35076557    -0.26200
C842        C  0.18670046  0.34893939  0.32726995    -0.14300
C843        C  0.15808851  0.33844424  0.32007164     0.36300
C844        C  0.13271047  0.34577887  0.33697546    -0.25700
C845        C  0.13435654  0.36316253  0.36177785    -0.14900
C846        C  0.16240224  0.37552910  0.36814455     0.37400
N847        N  0.16627257  0.39460097  0.39234204    -0.89200
H848        H  0.20840968  0.37883737  0.35668409     0.18500
H849        H  0.11152377  0.33672770  0.33097623     0.18500
N850        N  0.15449717  0.31923122  0.29607008    -0.88200
H851        H  0.16057401  0.38289728  0.41119606     0.35900
H852        H  0.15232323  0.41315011  0.39036323     0.41000
H853        H  0.13951972  0.32953891  0.28234919     0.40600
H854        H  0.14472968  0.29951339  0.30361573     0.35500
C855        C  0.20063405  0.37144481  0.23255724    -0.26200
C856        C  0.20867294  0.34648998  0.21527141    -0.14300
C857        C  0.20299012  0.31970776  0.23059529     0.36300
C858        C  0.21465038  0.31778706  0.25780287    -0.25700
C859        C  0.21075431  0.34206150  0.27690137    -0.14900
C860        C  0.19947173  0.36870298  0.26339998     0.37400
N861        N  0.18676273  0.39241661  0.28029741    -0.89200
H862        H  0.19450805  0.39239880  0.22284375     0.18500
H863        H  0.21599163  0.29533224  0.26547987     0.18500
N864        N  0.17274116  0.30920847  0.23039171    -0.88200
H865        H  0.19712988  0.41234047  0.27424586     0.35900
H866        H  0.16446291  0.39450150  0.27488997     0.41000
H867        H  0.15827349  0.32710983  0.23449075     0.40600
H868        H  0.16799279  0.29388140  0.24684085     0.35500
C869        C  0.20832852  0.43002753  0.15690768    -0.26200
C870        C  0.18999824  0.42688123  0.13351787    -0.14300
C871        C  0.18058997  0.39795097  0.12650781     0.36300
C872        C  0.19062780  0.37301770  0.14225993    -0.25700
C873        C  0.20958800  0.37566786  0.16597163    -0.14900
C874        C  0.21934434  0.40557864  0.17205227     0.37400
N875        N  0.24323521  0.41285048  0.19045518    -0.89200
H876        H  0.21648154  0.45193650  0.16220312     0.18500
H877        H  0.18378406  0.35140117  0.13497774     0.18500
N878        N  0.16109589  0.39350785  0.10311305    -0.88200
H879        H  0.26353695  0.40676891  0.18074792     0.35900
H880        H  0.24052708  0.40461491  0.21124420     0.41000
H881        H  0.14203000  0.38278961  0.11119876     0.40600
H882        H  0.17172007  0.37930664  0.08826750     0.35500
C883        C  0.19934835  0.15925329  0.32056445    -0.26200
C884        C  0.21511817  0.18387331  0.33158667    -0.14300
C885        C  0.21745878  0.18376789  0.36243043     0.36300
C886        C  0.21084989  0.15782057  0.37862242    -0.25700
C887        C  0.20122255  0.13163345  0.36568342    -0.14900
C888        C  0.19383017  0.13313679  0.33650103     0.37400
N889        N  0.17997175  0.10878093  0.32241734    -0.89200
H890        H  0.19097321  0.15924957  0.29922393     0.18500
H891        H  0.21430485  0.15798529  0.40161516     0.18500
N892        N  0.22641694  0.20955890  0.37806216    -0.88200
H893        H  0.16063582  0.10305599  0.33413185     0.35900
H894        H  0.19454356  0.09058656  0.32209869     0.41000
H895        H  0.24333626  0.20372417  0.39202241     0.40600
H896        H  0.20840621  0.21603017  0.39137081     0.35500
C897        C  0.21186049  0.25312151  0.33667744    -0.26200
C898        C  0.23391958  0.23955677  0.31853428    -0.14300
C899        C  0.25288857  0.25999727  0.30322115     0.36300
C900        C  0.24832099  0.29103593  0.30506642    -0.25700
C901        C  0.22273490  0.30382154  0.31810991    -0.14900
C902        C  0.20675262  0.28444837  0.33736921     0.37400
N903        N  0.18537262  0.29575421  0.35793734    -0.89200
H904        H  0.19559247  0.23956185  0.34796806     0.18500
H905        H  0.26274207  0.30547059  0.29239354     0.18500
N906        N  0.27573969  0.24948904  0.28377423    -0.88200
H907        H  0.19227183  0.28977855  0.37848865     0.35900
H908        H  0.16505550  0.28535135  0.35458258     0.41000
H909        H  0.28517022  0.26724478  0.27241190     0.40600
H910        H  0.26520861  0.23746983  0.26812622     0.35500
C911        C  0.18075911  0.27102754  0.17876906    -0.26200
C912        C  0.20578334  0.25271050  0.17314738    -0.14300
C913        C  0.22655067  0.26582756  0.15324607     0.36300
C914        C  0.23090942  0.29666247  0.15382533    -0.25700
C915        C  0.21076643  0.31599367  0.16846410    -0.14900
C916        C  0.18218465  0.30242752  0.17352092     0.37400
N917        N  0.15523600  0.31945115  0.17721875    -0.89200
H918        H  0.16070247  0.26153902  0.18825048     0.18500
H919        H  0.25109535  0.30377647  0.14363275     0.18500
N920        N  0.24461654  0.24813741  0.13396246    -0.88200
H921        H  0.15938931  0.34214946  0.17871464     0.35900
H922        H  0.14250922  0.31597777  0.15909633     0.41000
H923        H  0.26683955  0.25264777  0.13782386     0.40600
H924        H  0.24043282  0.25504773  0.11293076     0.35500
C925        C  0.19871972  0.23462467  0.23878280    -0.26200
C926        C  0.20691581  0.21309626  0.21865659    -0.14300
C927        C  0.21373338  0.18434488  0.23013200     0.36300
C928        C  0.21984723  0.18081675  0.25969533    -0.25700
C929        C  0.21829028  0.20508993  0.27894277    -0.14900
C930        C  0.20040093  0.22916843  0.26849531     0.37400
N931        N  0.17710876  0.24220885  0.28588016    -0.89200
H932        H  0.18836758  0.25445719  0.23139836     0.18500
H933        H  0.22830628  0.15947342  0.26689227     0.18500
N934        N  0.21570676  0.15896403  0.21164604    -0.88200
H935        H  0.18238215  0.26423032  0.29012088     0.35900
H936        H  0.17301779  0.22982650  0.30463810     0.41000
H937        H  0.23693731  0.14962629  0.21321527     0.40600
H938        H  0.20032830  0.14326655  0.21935620     0.35500
C939        C  0.13395473  0.19051924  0.16268011    -0.26200
C940        C  0.13768202  0.18870757  0.13286712    -0.14300
C941        C  0.16691491  0.19088707  0.12087632     0.36300
C942        C  0.19108852  0.19695914  0.13891701    -0.25700
C943        C  0.18721665  0.20110187  0.16896066    -0.14900
C944        C  0.15758603  0.19679033  0.18060872     0.37400
N945        N  0.15027070  0.20023033  0.21062959    -0.89200
H946        H  0.11193148  0.18806856  0.17245703     0.18500
H947        H  0.21269187  0.20075438  0.12892915     0.18500
N948        N  0.17196896  0.18829815  0.09031095    -0.88200
H949        H  0.14098725  0.18034389  0.21837488     0.35900
H950        H  0.13430400  0.21712393  0.21299672     0.41000
H951        H  0.19468888  0.18927492  0.08506151     0.40600
H952        H  0.16218435  0.20686141  0.08063905     0.35500
C953        C  0.41938861  0.20960021  0.31846139    -0.26200
C954        C  0.39107636  0.19796953  0.32627395    -0.14300
C955        C  0.39178597  0.17258539  0.34464410     0.36300
C956        C  0.41719195  0.16701071  0.36134979    -0.25700
C957        C  0.44323775  0.18423078  0.35797001    -0.14900
C958        C  0.44466791  0.20425958  0.33444058     0.37400
N959        N  0.47116235  0.22002662  0.32617037    -0.89200
H960        H  0.42205780  0.22406801  0.29986543     0.18500
H961        H  0.41665685  0.14872519  0.37666946     0.18500
N962        N  0.36921416  0.15035034  0.34377128    -0.88200
H963        H  0.48813039  0.20461630  0.32163048     0.35900
H964        H  0.47714011  0.23378904  0.34308548     0.41000
H965        H  0.36306413  0.14456068  0.36494265     0.40600
H966        H  0.37877761  0.13130626  0.33445924     0.35500
C967        C  0.31805308  0.18579752  0.28916610    -0.26200
C968        C  0.33233428  0.19490063  0.31445202    -0.14300
C969        C  0.31439304  0.19000021  0.33939007     0.36300
C970        C  0.28281476  0.19016217  0.33698535    -0.25700
C971        C  0.26777803  0.19328160  0.31037021    -0.14900
C972        C  0.28715107  0.18676594  0.28612856     0.37400
N973        N  0.27736085  0.18322388  0.25745568    -0.89200
H974        H  0.33018815  0.18016932  0.26983984     0.18500
H975        H  0.27090408  0.18920315  0.35676814     0.18500
N976        N  0.32732743  0.18739325  0.36733389    -0.88200
H977        H  0.28820085  0.19878916  0.24421632     0.35900
H978        H  0.28378078  0.16205651  0.25023451     0.41000
H979        H  0.34128139  0.20531793  0.37115551     0.40600
H980        H  0.31093750  0.18699305  0.38373918     0.35500
C981        C  0.29407137  0.23089047  0.19708120    -0.26200
C982        C  0.30946656  0.20697159  0.18427357    -0.14300
C983        C  0.29082900  0.18787973  0.16737931     0.36300
C984        C  0.25921422  0.19062378  0.16859723    -0.25700
C985        C  0.24490756  0.21420297  0.18316120    -0.14900
C986        C  0.26355538  0.23477435  0.19711720     0.37400
N987        N  0.25161007  0.26167939  0.20963147    -0.89200
H988        H  0.30531352  0.24932458  0.20504012     0.18500
H989        H  0.24613214  0.17487420  0.15694259     0.18500
N990        N  0.30311331  0.16808014  0.14608564    -0.88200
H991        H  0.26157360  0.27984804  0.19916540     0.35900
H992        H  0.25712216  0.26293591  0.23104669     0.41000
H993        H  0.29469875  0.14677492  0.15022394     0.40600
H994        H  0.29573156  0.17489284  0.12593408     0.35500
C995        C  0.38206533  0.19128843  0.26293592    -0.26200
C996        C  0.37036919  0.21567032  0.27923036    -0.14300
C997        C  0.35797542  0.23824281  0.26279314     0.36300
C998        C  0.35004084  0.23382322  0.23454408    -0.25700
C999        C  0.35600664  0.20771643  0.21874353    -0.14900
C1000       C  0.37672043  0.18809568  0.23279617     0.37400
N1001       N  0.39399571  0.16650245  0.21685638    -0.89200
H1002       H  0.39391352  0.17374152  0.27389901     0.18500
H1003       H  0.34306991  0.25370194  0.22418449     0.18500
N1004       N  0.35384532  0.26682754  0.27432456    -0.88200
H1005       H  0.40769889  0.15428371  0.23042350     0.35900
H1006       H  0.40818316  0.17825351  0.20271829     0.41000
H1007       H  0.36657278  0.28189423  0.26229725     0.40600
H1008       H  0.33135683  0.27125916  0.27359403     0.35500
C1009       C  0.34711235  0.15003554  0.18257452    -0.26200
C1010       C  0.35705607  0.17775961  0.17103729    -0.14300
C1011       C  0.37561630  0.17682519  0.14577298     0.36300
C1012       C  0.38076377  0.14973282  0.13157627    -0.25700
C1013       C  0.36855100  0.12278459  0.14168316    -0.14900
C1014       C  0.35251662  0.12279272  0.16824144     0.37400
N1015       N  0.34094698  0.09549943  0.18018873    -0.89200
H1016       H  0.33359400  0.15000070  0.20227546     0.18500
H1017       H  0.39400365  0.15014601  0.11172130     0.18500
N1018       N  0.38940602  0.20293494  0.13387022    -0.88200
H1019       H  0.32907004  0.09953862  0.19946820     0.35900
H1020       H  0.35908879  0.08209149  0.18545216     0.41000
H1021       H  0.38242482  0.20574334  0.11274529     0.40600
H1022       H  0.41241429  0.19952075  0.13321943     0.35500
C1023       C  0.29289123  0.37013400  0.30154473    -0.26200
C1024       C  0.30718769  0.35309634  0.32276387    -0.14300
C1025       C  0.28881513  0.34660654  0.34789070     0.36300
C1026       C  0.25764507  0.34693722  0.34561234    -0.25700
C1027       C  0.24411254  0.35512669  0.31969547    -0.14900
C1028       C  0.26203561  0.37246518  0.30067874     0.37400
N1029       N  0.24965350  0.39488001  0.28272697    -0.89200
H1030       H  0.30550650  0.38127687  0.28465005     0.18500
H1031       H  0.24425344  0.33701218  0.36285670     0.18500
N1032       N  0.30019709  0.33712180  0.37499567    -0.88200
H1033       H  0.25691960  0.39122875  0.26159271     0.35900
H1034       H  0.25789068  0.41552494  0.28892777     0.41000
H1035       H  0.32303279  0.33518030  0.37368135     0.40600
H1036       H  0.29203754  0.31585473  0.37977697     0.35500
C1037       C  0.35298364  0.40016611  0.32189329    -0.26200
C1038       C  0.35707171  0.37120164  0.33354934    -0.14300
C1039       C  0.36917795  0.36979689  0.36157536     0.36300
C1040       C  0.37314586  0.39623189  0.37744797    -0.25700
C1041       C  0.36607629  0.42460090  0.36629071    -0.14900
C1042       C  0.35758917  0.42627288  0.33734404     0.37400
N1043       N  0.35291970  0.45406637  0.32283204    -0.89200
H1044       H  0.34508566  0.40290291  0.30033866     0.18500
H1045       H  0.38118818  0.39430869  0.39914685     0.18500
N1046       N  0.37717667  0.34203242  0.37465996    -0.88200
H1047       H  0.37239145  0.46657684  0.32356280     0.35900
H1048       H  0.33543962  0.46551881  0.33319723     0.41000
H1049       H  0.36630477  0.34044962  0.39480816     0.40600
H1050       H  0.39993425  0.34260899  0.37849865     0.35500
C1051       C  0.32640308  0.29082242  0.33246858    -0.26200
C1052       C  0.34904220  0.31178769  0.32738264    -0.14300
C1053       C  0.37808483  0.29943287  0.32523288     0.36300
C1054       C  0.38280199  0.26793592  0.32550626    -0.25700
C1055       C  0.35915307  0.24655147  0.32711338    -0.14900
C1056       C  0.33151341  0.26023507  0.33630200     0.37400
N1057       N  0.30995234  0.24570450  0.35435619    -0.89200
H1058       H  0.30345511  0.29716126  0.33319451     0.18500
H1059       H  0.40536720  0.26157340  0.32159105     0.18500
N1060       N  0.40298578  0.31852450  0.31983938    -0.88200
H1061       H  0.30981515  0.25573183  0.37462991     0.35900
H1062       H  0.28892908  0.24897300  0.34599522     0.41000
H1063       H  0.41292167  0.31245845  0.30009029     0.40600
H1064       H  0.41843748  0.31447790  0.33578874     0.35500
C1065       C  0.38208905  0.25039549  0.18200696    -0.26200
C1066       C  0.35717129  0.23635385  0.17101484    -0.14300
C1067       C  0.33960318  0.25486852  0.15359946     0.36300
C1068       C  0.33939552  0.28595466  0.15791518    -0.25700
C1069       C  0.35785645  0.30018118  0.17806477    -0.14900
C1070       C  0.38096184  0.28096672  0.18884226     0.37400
N1071       N  0.40168026  0.29047630  0.20951971    -0.89200
H1072       H  0.39896700  0.23676638  0.19192177     0.18500
H1073       H  0.32385391  0.29766995  0.14529422     0.18500
N1074       N  0.32186001  0.24274358  0.13138242    -0.88200
H1075       H  0.42305206  0.28689369  0.20069952     0.35900
H1076       H  0.39987643  0.27677303  0.22767538     0.41000
H1077       H  0.32709759  0.22027238  0.12852308     0.40600
H1078       H  0.32841567  0.25305102  0.11200176     0.35500
C1079       C  0.37337443  0.35444046  0.23720406    -0.26200
C1080       C  0.35453383  0.33512324  0.22173542    -0.14300
C1081       C  0.33214320  0.32032094  0.23912144     0.36300
C1082       C  0.32896262  0.32616508  0.26854942    -0.25700
C1083       C  0.34834247  0.34363973  0.28416953    -0.14900
C1084       C  0.37185131  0.35720933  0.26778805     0.37400
N1085       N  0.39440257  0.37387458  0.28148185    -0.89200
H1086       H  0.38864769  0.36908166  0.22590741     0.18500
H1087       H  0.31058164  0.31569371  0.27996264     0.18500
N1088       N  0.31035309  0.30041617  0.22806039    -0.88200
H1089       H  0.39438605  0.39544911  0.27288351     0.35900
H1090       H  0.41498461  0.36416075  0.27615975     0.41000
H1091       H  0.31027841  0.29967499  0.20585076     0.40600
H1092       H  0.28922071  0.30803617  0.23449444     0.35500
C1093       C  0.40988618  0.34539956  0.17934476    -0.26200
C1094       C  0.38028603  0.35155001  0.17137239    -0.14300
C1095       C  0.37812193  0.36946964  0.14598624     0.36300
C1096       C  0.40331148  0.37386620  0.12733004    -0.25700
C1097       C  0.43168501  0.36278574  0.13388100    -0.14900
C1098       C  0.43480618  0.34943906  0.16113055     0.37400
N1099       N  0.46292862  0.33942086  0.17132363    -0.89200
H1100       H  0.41476245  0.33796679  0.20054226     0.18500
H1101       H  0.40060818  0.38671125  0.10774951     0.18500
N1102       N  0.35175845  0.38602119  0.14013672    -0.88200
H1103       H  0.47731771  0.35754872  0.17216496     0.35900
H1104       H  0.47167151  0.32333125  0.15723088     0.41000
H1105       H  0.34598473  0.38176454  0.11891002     0.40600
H1106       H  0.35682220  0.40866425  0.14130384     0.35500
C1107       C  0.27256173  0.35574236  0.20534734    -0.26200
C1108       C  0.25626113  0.34924645  0.18074763    -0.14300
C1109       C  0.27370818  0.35042306  0.15436124     0.36300
C1110       C  0.30526455  0.34669514  0.15479661    -0.25700
C1111       C  0.32089190  0.34843942  0.18084591    -0.14900
C1112       C  0.30318198  0.36220371  0.20296053     0.37400
N1113       N  0.31619129  0.38291582  0.22231358    -0.89200
H1114       H  0.26138313  0.35949400  0.22574197     0.18500
H1115       H  0.31709523  0.34281811  0.13459092     0.18500
N1116       N  0.25978242  0.35542849  0.12735163    -0.88200
H1117       H  0.29977365  0.39273146  0.23545017     0.35900
H1118       H  0.32530072  0.40017988  0.20978013     0.41000
H1119       H  0.26667806  0.33884073  0.11289958     0.40600
H1120       H  0.26770196  0.37563348  0.11899975     0.35500
C1121       C  0.35029108  0.33706120  0.68336574    -0.02400
C1122       C  0.34073105  0.34617326  0.81358006    -0.02400
C1123       C  0.34683046  0.20876464  0.68159670    -0.02400
C1124       C  0.36505571  0.21477194  0.80865958     0.07200
C1125       C  0.21156050  0.21728429  0.68509171    -0.02400
C1126       C  0.23492428  0.20044265  0.80986387    -0.02400
C1127       C  0.21686600  0.34525976  0.68451164    -0.02400
C1128       C  0.21448711  0.33282962  0.81280223    -0.02400
C1129       C  0.84432048  0.72007675  0.69051276    -0.02400
C1130       C  0.83373083  0.70993711  0.81907994    -0.02400
C1131       C  0.71235722  0.70741231  0.67979804    -0.02400
C1132       C  0.70156520  0.72185090  0.80598750    -0.02400
C1133       C  0.70014243  0.83769078  0.68881416    -0.02400
C1134       C  0.71979173  0.85266354  0.81228191    -0.02400
C1135       C  0.83124165  0.85332681  0.68786317    -0.02400
C1136       C  0.85375536  0.83830573  0.81293853    -0.02400
O1137       O  0.89000994  0.49338584  0.90411766    -0.57700
C1138       C  0.87296907  0.60015638  0.87756142     0.74900
O1139       O  0.86060247  0.55545121  0.96015801    -0.58900
C1140       C  0.91441089  0.49418135  0.88998864     0.74900
C1141       C  0.93020133  0.56570618  0.95329443     0.77300
Cd1142     Cd  0.88674330  0.54818242  0.91335449     1.37500
O1143       O  0.85332250  0.58149827  0.88560599    -0.57700
O1144       O  0.92932214  0.57695706  0.92834151    -0.56500
C1145       C  0.83701382  0.54161601  0.95476265     0.77200
O1146       O  0.91143094  0.54566589  0.95921022    -0.58900
O1147       O  0.89929233  0.59336385  0.88355135    -0.57300
O1148       O  0.92344204  0.51985622  0.88317267    -0.57300
O1149       O  0.83551635  0.53133447  0.92936643    -0.56500
O1150       O  0.97133199  0.69683570  0.61847604    -0.57700
C1151       C  0.04807758  0.64770605  0.59696246     0.74900
O1152       O  0.00496821  0.65168851  0.52864819    -0.58900
C1153       C  0.94561918  0.68737577  0.61281938     0.74900
C1154       C  0.00166335  0.73161261  0.53955526     0.77300
Cd1155     Cd  0.99635548  0.67752355  0.57407313     1.37500
O1156       O  0.05007682  0.66956881  0.57974085    -0.57700
O1157       O  0.01168851  0.73081817  0.56482818    -0.56500
C1158       C  0.98539757  0.63206654  0.53329086     0.77200
O1159       O  0.98889144  0.70828465  0.53143712    -0.58900
O1160       O  0.02216747  0.64191361  0.60651563    -0.57300
O1161       O  0.94357093  0.67425789  0.58900643    -0.57300
O1162       O  0.97113530  0.63330601  0.55714106    -0.56500
O1163       O  0.91351863  0.01828279  0.54170788    -0.57700
C1164       C  0.83341685  0.01622520  0.54741269     0.74900
O1165       O  0.86082634  0.98507908  0.62806940    -0.58900
C1166       C  0.93023783  0.99622712  0.54678930     0.74900
C1167       C  0.91251476  0.06286327  0.61010341     0.77300
Cd1168     Cd  0.88330737  0.01141719  0.58554980     1.37500
O1169       O  0.85894137  0.00710087  0.53957799    -0.57700
O1170       O  0.88882548  0.06542320  0.59627308    -0.56500
C1171       C  0.86941615  0.95917829  0.62052393     0.77200
O1172       O  0.92011992  0.03642754  0.61600588    -0.58900
O1173       O  0.83053980  0.02408682  0.57357681    -0.57300
O1174       O  0.92563755  0.98249622  0.57033012    -0.57300
O1175       O  0.88425695  0.95784032  0.59711934    -0.56500
O1176       O  0.03502473  0.92047747  0.89452233    -0.57700
C1177       C  0.95473424  0.87053091  0.88347634     0.74900
O1178       O  0.00308224  0.85329073  0.96419295    -0.58900
C1179       C  0.06088080  0.90971200  0.89627433     0.74900
C1180       C  0.98924842  0.92550496  0.95858221     0.77300
Cd1181     Cd  0.00663517  0.88048190  0.91898732     1.37500
O1182       O  0.98116576  0.86575099  0.87424367    -0.57700
O1183       O  0.98003300  0.92533182  0.93312365    -0.56500
C1184       C  0.01132567  0.82790753  0.95546551     0.77200
O1185       O  0.00779458  0.90543568  0.96504851    -0.58900
O1186       O  0.95227947  0.87903260  0.90927811    -0.57300
O1187       O  0.06212991  0.88346785  0.90636496    -0.57300
O1188       O  0.01831120  0.82622418  0.92881595    -0.56500
O1189       O  0.57185772  0.69435650  0.87363859    -0.57700
C1190       C  0.49717478  0.64568885  0.89942828     0.74900
O1191       O  0.55120243  0.65066971  0.96599460    -0.58900
C1192       C  0.59837417  0.68788683  0.88019482     0.74900
C1193       C  0.54296530  0.72804034  0.95797311     0.77300
Cd1194     Cd  0.54908715  0.67645149  0.92052366     1.37500
O1195       O  0.52340658  0.63582740  0.89698094    -0.57700
O1196       O  0.54602273  0.73100152  0.93084599    -0.56500
C1197       C  0.57318368  0.63439929  0.95885772     0.77200
O1198       O  0.54132257  0.70158082  0.96717986    -0.58900
O1199       O  0.49449740  0.67146914  0.91010790    -0.57300
O1200       O  0.60150074  0.67719292  0.90511482    -0.57300
O1201       O  0.58306663  0.63655981  0.93318563    -0.56500
O1202       O  0.70156862  0.57405792  0.61779444    -0.57700
C1203       C  0.65503554  0.49261263  0.59748168     0.74900
O1204       O  0.66038740  0.55677532  0.52966159    -0.58900
C1205       C  0.69317965  0.59983836  0.60978451     0.74900
C1206       C  0.73477704  0.54124742  0.53677936     0.77300
Cd1207     Cd  0.68314276  0.54726930  0.57524700     1.37500
O1208       O  0.67681679  0.49140125  0.57970403    -0.57700
O1209       O  0.73819441  0.54522871  0.56357515    -0.56500
C1210       C  0.63716742  0.56890762  0.54020979     0.77200
O1211       O  0.70824520  0.53873909  0.52918747    -0.58900
O1212       O  0.64945545  0.51812994  0.60762121    -0.57300
O1213       O  0.68134800  0.60119209  0.58549590    -0.57300
O1214       O  0.63474382  0.56985584  0.56733392    -0.56500
O1215       O  0.49751018  0.87789448  0.59133162    -0.57700
C1216       C  0.60456464  0.86636598  0.61115303     0.74900
O1217       O  0.54717534  0.85016336  0.53055684    -0.58900
C1218       C  0.49853251  0.90391110  0.60165950     0.74900
C1219       C  0.56821654  0.92474822  0.53942128     0.77300
Cd1220     Cd  0.55195277  0.87616373  0.57645774     1.37500
O1221       O  0.57877177  0.86886843  0.62276163    -0.57700
O1222       O  0.58126158  0.91903931  0.56251943    -0.56500
C1223       C  0.54401552  0.82391633  0.54007794     0.77200
O1224       O  0.54715528  0.90769122  0.53314208    -0.58900
O1225       O  0.60559718  0.86665451  0.58394341    -0.57300
O1226       O  0.52414406  0.91490894  0.60326099    -0.57300
O1227       O  0.54423858  0.82119484  0.56732489    -0.56500
O1228       O  0.70201617  0.97776487  0.87874044    -0.57700
C1229       C  0.66520460  0.06027296  0.90110048     0.74900
O1230       O  0.65972898  0.00805823  0.96734463    -0.58900
C1231       C  0.70056181  0.95202863  0.89023389     0.74900
C1232       C  0.74027007  0.01097129  0.96252323     0.77300
Cd1233     Cd  0.69077827  0.00558946  0.92414527     1.37500
O1234       O  0.65689705  0.03471806  0.89368277    -0.57700
O1235       O  0.74459863  0.01289875  0.93537848    -0.56500
C1236       C  0.64089859  0.98940191  0.95918780     0.77200
O1237       O  0.71361357  0.00725881  0.97097077    -0.58900
O1238       O  0.68820224  0.06086832  0.91613369    -0.57300
O1239       O  0.69744805  0.95136628  0.91732723    -0.57300
O1240       O  0.64466397  0.97923650  0.93406173    -0.56500
O1241       O  0.56390119  0.37951419  0.58904320    -0.57700
C1242       C  0.45779553  0.36767413  0.61358907     0.74900
O1243       O  0.51279081  0.40552921  0.53137009    -0.58900
C1244       C  0.56186085  0.40594464  0.59829700     0.74900
C1245       C  0.51659728  0.32497544  0.53664852     0.77300
Cd1246     Cd  0.50995588  0.37623349  0.57540640     1.37500
O1247       O  0.48374741  0.36021719  0.62107428    -0.57700
O1248       O  0.51405677  0.35150963  0.52785953    -0.56500
C1249       C  0.49077075  0.42185416  0.53837581     0.77200
O1250       O  0.51689977  0.32175156  0.56383337    -0.58900
O1251       O  0.45604703  0.37736327  0.58812927    -0.57300
O1252       O  0.53595623  0.41675868  0.59945979    -0.57300
O1253       O  0.47894788  0.41761782  0.56305267    -0.56500
O1254       O  0.41476592  0.53183540  0.88779468    -0.57700
C1255       C  0.37002510  0.45293429  0.88002402     0.74900
O1256       O  0.40981438  0.51180841  0.96015490    -0.58900
C1257       C  0.40629831  0.55756543  0.89542044     0.74900
C1258       C  0.32975225  0.50655710  0.96004641     0.77300
Cd1259     Cd  0.37968160  0.50335370  0.91854628     1.37500
O1260       O  0.36208851  0.47922347  0.87337013    -0.57700
O1261       O  0.32744850  0.51667037  0.93457569    -0.56500
C1262       C  0.42796478  0.49088109  0.95483775     0.77200
O1263       O  0.35431082  0.49432637  0.96531449    -0.58900
O1264       O  0.38127648  0.45021738  0.90450543    -0.57300
O1265       O  0.38245732  0.55860127  0.91052159    -0.57300
O1266       O  0.42455669  0.47673644  0.93170196    -0.56500
O1267       O  0.49462359  0.20018306  0.87236829    -0.57700
C1268       C  0.57505833  0.15058302  0.90114249     0.74900
O1269       O  0.52233785  0.23186068  0.92556555    -0.58900
C1270       C  0.47156773  0.18394011  0.87298280     0.74900
C1271       C  0.48523884  0.13664557  0.95137743     0.77300
Cd1272     Cd  0.51739372  0.17726232  0.91605116     1.37500
O1273       O  0.55498136  0.15290006  0.88269601    -0.57700
O1274       O  0.50597156  0.12683045  0.93493559    -0.56500
C1275       C  0.52300307  0.22926085  0.95278587     0.77200
O1276       O  0.48080827  0.16441926  0.95153474    -0.58900
O1277       O  0.56924172  0.16260830  0.92514673    -0.57300
O1278       O  0.47056139  0.16447010  0.89265848    -0.57300
O1279       O  0.52274372  0.20288387  0.96236299    -0.56500
O1280       O  0.41968308  0.01935098  0.60565660    -0.57700
C1281       C  0.37157400  0.09915338  0.61641997     0.74900
O1282       O  0.42920330  0.07360985  0.56570999    -0.58900
C1283       C  0.40866897  0.99389871  0.60211841     0.74900
C1284       C  0.33251924  0.04558436  0.54021676     0.77300
Cd1285     Cd  0.38280649  0.04834082  0.57866321     1.37500
O1286       O  0.36507681  0.07295114  0.62466153    -0.57700
O1287       O  0.32955353  0.03827464  0.56659543    -0.56500
C1288       C  0.43204328  0.06250769  0.54080530     0.77200
O1289       O  0.35827898  0.05365086  0.53215453    -0.58900
O1290       O  0.38175582  0.10144986  0.59089891    -0.57300
O1291       O  0.38339686  0.99366515  0.59083229    -0.57300
O1292       O  0.41245922  0.04398029  0.53387964    -0.56500
O1293       O  0.00460556  0.17447246  0.59653230    -0.57700
C1294       C  0.11250633  0.18627378  0.61297433     0.74900
O1295       O  0.05201287  0.14367759  0.53958761    -0.58900
C1296       C  0.00608551  0.14860996  0.60753372     0.74900
C1297       C  0.05091403  0.22563754  0.54025510     0.77300
Cd1298     Cd  0.05881691  0.17591579  0.58026164     1.37500
O1299       O  0.08655047  0.18708261  0.62450573    -0.57700
O1300       O  0.04744173  0.22930435  0.56727488    -0.56500
C1301       C  0.07351385  0.12656347  0.54518132     0.77200
O1302       O  0.05751466  0.19950832  0.53241405    -0.58900
O1303       O  0.11348372  0.18305856  0.58597133    -0.57300
O1304       O  0.03188935  0.13762428  0.60870395    -0.57300
O1305       O  0.08745078  0.13189724  0.56778404    -0.56500
O1306       O  0.14494161  0.02228966  0.89372974    -0.57700
C1307       C  0.19845163  0.09956304  0.88456960     0.74900
O1308       O  0.15157291  0.04130800  0.96293794    -0.58900
C1309       C  0.15449207  0.99586819  0.89564796     0.74900
C1310       C  0.23245222  0.04017633  0.96132445     0.77300
Cd1311     Cd  0.18376152  0.04760864  0.92072938     1.37500
O1312       O  0.20159067  0.07327079  0.87499829    -0.57700
O1313       O  0.23408431  0.02912304  0.93619379    -0.56500
C1314       C  0.13391898  0.06237026  0.95705425     0.77200
O1315       O  0.20873772  0.05428474  0.96738973    -0.58900
O1316       O  0.19029501  0.10152421  0.91070475    -0.57300
O1317       O  0.18006970  0.99310399  0.90616494    -0.57300
O1318       O  0.13844194  0.07561296  0.93324072    -0.56500
O1319       O  0.16450248  0.55891747  0.58502170    -0.57700
C1320       C  0.17952259  0.45179123  0.61763090     0.74900
O1321       O  0.15130800  0.49177218  0.53449177    -0.58900
C1322       C  0.14027651  0.55855696  0.59948629     0.74900
C1323       C  0.22141955  0.51053589  0.54366153     0.77300
Cd1324     Cd  0.16907282  0.50348622  0.58097683     1.37500
O1325       O  0.18812424  0.47766894  0.62438739    -0.57700
O1326       O  0.22408810  0.50916516  0.57082839    -0.56500
C1327       C  0.12529819  0.48466147  0.54263321     0.77200
O1328       O  0.19518135  0.50964641  0.53485782    -0.58900
O1329       O  0.16627296  0.45010299  0.59413218    -0.57300
O1330       O  0.13225390  0.53328748  0.60874250    -0.57300
O1331       O  0.11913764  0.48624856  0.56933005    -0.56500
O1332       O  0.99930673  0.37847675  0.91357306    -0.57700
C1333       C  0.10619120  0.35958644  0.88389638     0.74900
O1334       O  0.07721346  0.41839201  0.93263324    -0.58900
C1335       C  0.00158837  0.40095236  0.89715282     0.74900
C1336       C  0.04904457  0.32237623  0.96163453     0.77300
Cd1337     Cd  0.05378309  0.37176242  0.92069291     1.37500
O1338       O  0.08188366  0.34620157  0.87971442    -0.57700
O1339       O  0.03723897  0.32073993  0.93713935    -0.56500
C1340       C  0.06820328  0.41827099  0.95867572     0.77200
O1341       O  0.06318582  0.34596348  0.96621916    -0.58900
O1342       O  0.10561777  0.37741944  0.90471945    -0.57300
O1343       O  0.02775896  0.40724255  0.88881779    -0.57300
O1344       O  0.05084007  0.39750550  0.96632837    -0.56500
C1345       C  0.09091792  0.45306682  0.02830378    -0.26200
C1346       C  0.10410602  0.47350574  0.52191909    -0.14300
C1347       C  0.10780013  0.48021830  0.49236626     0.36300
C1348       C  0.09209256  0.46389366  0.47242878    -0.25700
C1349       C  0.07938330  0.43990591  0.97935262    -0.14900
C1350       C  0.07476669  0.43599335  0.00930986     0.37400
N1351       N  0.05521113  0.41347276  0.02065270    -0.89200
H1352       H  0.08818507  0.44882340  0.05122317     0.18500
H1353       H  0.09612700  0.46813586  0.44966932     0.18500
N1354       N  0.12853034  0.50262206  0.48261334    -0.88200
H1355       H  0.03936015  0.42370980  0.03425883     0.35900
H1356       H  0.06767022  0.39873554  0.03304769     0.41000
H1357       H  0.12070288  0.52313524  0.49030842     0.40600
H1358       H  0.12921833  0.50416504  0.46013399     0.35500
C1359       C  0.04193288  0.26880185  0.97424346    -0.26200
C1360       C  0.04709999  0.29790796  0.98353583    -0.14300
C1361       C  0.05273657  0.30405945  0.50918349     0.36300
C1362       C  0.05246511  0.27988644  0.52843124    -0.25700
C1363       C  0.04852544  0.25060220  0.51899931    -0.14900
C1364       C  0.04244333  0.24452602  0.99334015     0.37400
N1365       N  0.03911968  0.21543401  0.98140497    -0.89200
H1366       H  0.03878980  0.26459523  0.95158667     0.18500
H1367       H  0.05606755  0.28409133  0.55101221     0.18500
N1368       N  0.05679536  0.33309734  0.52103068    -0.88200
H1369       H  0.02138645  0.20473423  0.99208054     0.35900
H1370       H  0.05872490  0.20330806  0.98417206     0.41000
H1371       H  0.03943929  0.34593325  0.01900191     0.40600
H1372       H  0.07640554  0.34224918  0.51237005     0.35500
C1373       C  0.12128176  0.06767421  0.51030473    -0.26200
C1374       C  0.11137952  0.07278698  0.97835906    -0.14300
C1375       C  0.08923218  0.09373467  0.97136076     0.36300
C1376       C  0.07354028  0.10861078  0.99351554    -0.25700
C1377       C  0.08359980  0.10354742  0.52485989    -0.14900
C1378       C  0.10548266  0.08253067  0.53220219     0.37400
N1379       N  0.11279224  0.07731641  0.56163793    -0.89200
H1380       H  0.13942161  0.05306868  0.51614302     0.18500
H1381       H  0.05754674  0.12562774  0.98779820     0.18500
N1382       N  0.08368811  0.10116325  0.94194873    -0.88200
H1383       H  0.13527453  0.08224123  0.56392794     0.35900
H1384       H  0.10989416  0.05465324  0.56609845     0.41000
H1385       H  0.08762319  0.12392485  0.93903597     0.40600
H1386       H  0.06122406  0.09734017  0.93830004     0.35500
C1387       C  0.30860780  0.03018236  0.99501312    -0.26200
C1388       C  0.30772529  0.04510521  0.51946179    -0.14300
C1389       C  0.27748201  0.04537047  0.52855180     0.36300
C1390       C  0.25523115  0.04642294  0.50782414    -0.25700
C1391       C  0.25664100  0.03713307  0.98272124    -0.14900
C1392       C  0.28647403  0.03134927  0.97415391     0.37400
N1393       N  0.29446720  0.02744568  0.94422255    -0.89200
H1394       H  0.33148593  0.02660197  0.98793336     0.18500
H1395       H  0.23212008  0.04660490  0.51503548     0.18500
N1396       N  0.26932119  0.04558177  0.55870470    -0.88200
H1397       H  0.31714346  0.02266581  0.94159403     0.35900
H1398       H  0.29086806  0.04777916  0.93376672     0.41000
H1399       H  0.27472799  0.02468005  0.56715187     0.40600
H1400       H  0.24631422  0.04796747  0.56166273     0.35500
C1401       C  0.45297239  0.06537812  0.49082572    -0.26200
C1402       C  0.45560797  0.07226390  0.52008315    -0.14300
C1403       C  0.46362716  0.07833440  0.00635858     0.36300
C1404       C  0.47990279  0.09377806  0.98489601    -0.25700
C1405       C  0.46680609  0.11732315  0.96984652    -0.14900
C1406       C  0.47054974  0.07976188  0.46958328     0.37400
N1407       N  0.46728894  0.07261311  0.43972368    -0.89200
H1408       H  0.43605502  0.04995596  0.48430843     0.18500
H1409       H  0.50320934  0.08845672  0.98112474     0.18500
N1410       N  0.47796588  0.05565707  0.02284335    -0.88200
H1411       H  0.45138756  0.05598876  0.43740463     0.35900
H1412       H  0.48752799  0.06360908  0.43222517     0.41000
H1413       H  0.49611847  0.06521516  0.03277762     0.40600
H1414       H  0.48610831  0.03939556  0.00860806     0.35500
C1415       C  0.27876378  0.52369496  0.97514232    -0.26200
C1416       C  0.30519429  0.50904060  0.98241249    -0.14300
C1417       C  0.29977738  0.50108269  0.51251808     0.36300
C1418       C  0.27552512  0.50334080  0.53200750    -0.25700
C1419       C  0.24728058  0.51184853  0.52290359    -0.14900
C1420       C  0.25469172  0.52648135  0.99502143     0.37400
N1421       N  0.22865982  0.54307622  0.98729908    -0.89200
H1422       H  0.27685377  0.53329338  0.95382213     0.18500
H1423       H  0.27872403  0.49762705  0.55441317     0.18500
N1424       N  0.32786211  0.49252627  0.52387628    -0.88200
H1425       H  0.23094749  0.55140374  0.96628727     0.35900
H1426       H  0.22712114  0.56158352  0.00083042     0.41000
H1427       H  0.34352273  0.50889837  0.51853096     0.40600
H1428       H  0.33453791  0.47216639  0.51496830     0.35500
C1429       C  0.52894725  0.25024804  0.00211180    -0.26200
C1430       C  0.52290228  0.25518317  0.97286268    -0.14300
C1431       C  0.51397269  0.28156573  0.46617232     0.36300
C1432       C  0.51473845  0.30498223  0.48625993    -0.25700
C1433       C  0.51821799  0.29949086  0.51591963    -0.14900
C1434       C  0.52614989  0.27316172  0.02259042     0.37400
N1435       N  0.53170734  0.26674970  0.05219314    -0.89200
H1436       H  0.53540838  0.22822803  0.00937222     0.18500
H1437       H  0.51186452  0.32760900  0.47855183     0.18500
N1438       N  0.50888381  0.28819322  0.43652246    -0.88200
H1439       H  0.55350166  0.25878388  0.05351761     0.35900
H1440       H  0.51731773  0.24978632  0.05907998     0.41000
H1441       H  0.52572827  0.30239697  0.42895820     0.40600
H1442       H  0.48865459  0.29965022  0.43537363     0.35500
C1443       C  0.45676228  0.46386133  0.52934038    -0.26200
C1444       C  0.47791039  0.44347339  0.51844152    -0.14300
C1445       C  0.49044672  0.44661637  0.98516388     0.36300
C1446       C  0.47368977  0.46294699  0.96568694    -0.25700
C1447       C  0.45050067  0.48163689  0.97541542    -0.14900
C1448       C  0.43893870  0.48022015  0.51084876     0.37400
N1449       N  0.41676434  0.50000135  0.52274684    -0.89200
H1450       H  0.45297107  0.46610559  0.55238140     0.18500
H1451       H  0.47760260  0.45947540  0.94281112     0.18500
N1452       N  0.51302724  0.42659282  0.97447015    -0.88200
H1453       H  0.42741368  0.51576805  0.53524111     0.35900
H1454       H  0.40249692  0.48768308  0.53633853     0.41000
H1455       H  0.52850021  0.43893677  0.96223753     0.40600
H1456       H  0.50315804  0.41133306  0.96083255     0.35500
C1457       C  0.64890364  0.11184371  0.91383190    -0.26200
C1458       C  0.64705521  0.08740927  0.89520367    -0.14300
C1459       C  0.62434607  0.08728444  0.87476052     0.36300
C1460       C  0.60253693  0.10994312  0.87529056    -0.25700
C1461       C  0.60254588  0.13248672  0.89610919    -0.14900
C1462       C  0.62682742  0.13415124  0.91461255     0.37400
N1463       N  0.62860225  0.15779583  0.93505122    -0.89200
H1464       H  0.66630925  0.11256075  0.92944345     0.18500
H1465       H  0.58426941  0.10871403  0.86067438     0.18500
N1466       N  0.62262611  0.06339708  0.85443615    -0.88200
H1467       H  0.64870311  0.16888638  0.93124681     0.35900
H1468       H  0.62900743  0.14837080  0.95567703     0.41000
H1469       H  0.64145841  0.06463234  0.84077862     0.40600
H1470       H  0.60420587  0.06617523  0.84145870     0.35500
C1471       C  0.44581415  0.91807519  0.59276121    -0.26200
C1472       C  0.47150978  0.92205133  0.60873162    -0.14300
C1473       C  0.47283431  0.94679854  0.62718920     0.36300
C1474       C  0.45031616  0.96863433  0.62692985    -0.25700
C1475       C  0.42623727  0.96643416  0.60843113    -0.14900
C1476       C  0.42328812  0.93988035  0.59237063     0.37400
N1477       N  0.39884866  0.93522371  0.57389026    -0.89200
H1478       H  0.44429771  0.89911992  0.57856016     0.18500
H1479       H  0.45271213  0.98834417  0.63999451     0.18500
N1480       N  0.49762820  0.95043127  0.64546432    -0.88200
H1481       H  0.39882027  0.95195096  0.55815123     0.35900
H1482       H  0.37912627  0.93640791  0.58628973     0.41000
H1483       H  0.48950430  0.95166868  0.66674318     0.40600
H1484       H  0.50781738  0.97069250  0.64023018     0.35500
C1485       C  0.57913635  0.94215191  0.99042360    -0.26200
C1486       C  0.57866476  0.94872834  0.51999699    -0.14300
C1487       C  0.59717818  0.97147467  0.52997660     0.36300
C1488       C  0.61389119  0.98834698  0.50995224    -0.25700
C1489       C  0.61739074  0.97832506  0.97895789    -0.14900
C1490       C  0.59566748  0.95830879  0.96984094     0.37400
N1491       N  0.59104136  0.95351652  0.93983401    -0.89200
H1492       H  0.56393863  0.92534315  0.98315668     0.18500
H1493       H  0.62982471  0.00419248  0.51767927     0.18500
N1494       N  0.60007170  0.97628880  0.56034946    -0.88200
H1495       H  0.56882015  0.95846652  0.93577265     0.35900
H1496       H  0.59467417  0.93094740  0.93547339     0.41000
H1497       H  0.57931026  0.98317881  0.56861017     0.40600
H1498       H  0.61483297  0.99365150  0.56403018     0.35500
C1499       C  0.60830259  0.47215530  0.61966703    -0.26200
C1500       C  0.63497587  0.46680727  0.60396163    -0.14300
C1501       C  0.63931275  0.43849729  0.59129397     0.36300
C1502       C  0.61599042  0.41764575  0.59191010    -0.25700
C1503       C  0.58819702  0.42445432  0.60490839    -0.14900
C1504       C  0.58497534  0.45140332  0.62032582     0.37400
N1505       N  0.55758645  0.45819483  0.63567266    -0.89200
H1506       H  0.60482628  0.49342991  0.63014217     0.18500
H1507       H  0.61907856  0.39684592  0.58046989     0.18500
N1508       N  0.66689528  0.43110825  0.57687232    -0.88200
H1509       H  0.55870387  0.47898137  0.64559603     0.35900
H1510       H  0.55495518  0.44244362  0.65220183     0.41000
H1511       H  0.66251062  0.42580814  0.55552779     0.40600
H1512       H  0.67548567  0.41205355  0.58673849     0.35500
C1513       C  0.44308054  0.63284343  0.90438205    -0.26200
C1514       C  0.47134079  0.62695355  0.89192272    -0.14300
C1515       C  0.47539494  0.60095662  0.87520173     0.36300
C1516       C  0.45254511  0.57982483  0.87439968    -0.25700
C1517       C  0.42542187  0.58407879  0.88959665    -0.14900
C1518       C  0.42004852  0.61179460  0.90310833     0.37400
N1519       N  0.39172811  0.61826073  0.91654953    -0.89200
H1520       H  0.43928595  0.65305958  0.91660215     0.18500
H1521       H  0.45669085  0.55909717  0.86312572     0.18500
N1522       N  0.50312142  0.59551639  0.85992543    -0.88200
H1523       H  0.38238606  0.63750178  0.41041904     0.35900
H1524       H  0.39495527  0.62268485  0.93830652     0.41000
H1525       H  0.50558974  0.61213406  0.84418925     0.40600
H1526       H  0.50263600  0.57524050  0.84900519     0.35500
C1527       C  0.53843862  0.74547619  0.50822534    -0.26200
C1528       C  0.54198578  0.75370423  0.97825188    -0.14300
C1529       C  0.55174824  0.78227132  0.96978570     0.36300
C1530       C  0.53984130  0.80457483  0.49000041    -0.25700
C1531       C  0.54068396  0.79840670  0.51976865    -0.14900
C1532       C  0.53924881  0.76832363  0.52894240     0.37400
N1533       N  0.53913977  0.76087967  0.55908595    -0.89200
H1534       H  0.52472975  0.72733804  0.01385289     0.18500
H1535       H  0.54056684  0.82740698  0.48236264     0.18500
N1536       N  0.56236511  0.78774120  0.94087617    -0.88200
H1537       H  0.53920544  0.73777910  0.56205447     0.35900
H1538       H  0.51907357  0.76863729  0.56822709     0.41000
H1539       H  0.58433323  0.79506458  0.94162760     0.40600
H1540       H  0.54955770  0.80488388  0.93216776     0.35500
C1541       C  0.58000596  0.62117696  0.50951068    -0.26200
C1542       C  0.58754073  0.61533616  0.98007186    -0.14300
C1543       C  0.60424944  0.59004722  0.97197092     0.36300
C1544       C  0.61985275  0.57435650  0.99283436    -0.25700
C1545       C  0.61486229  0.58199790  0.52140097    -0.14900
C1546       C  0.59704679  0.60664984  0.52989991     0.37400
N1547       N  0.59707059  0.61861055  0.55843639    -0.89200
H1548       H  0.56776687  0.64103822  0.51592191     0.18500
H1549       H  0.63280310  0.55502543  0.98621580     0.18500
N1550       N  0.60587746  0.58052229  0.94257959    -0.88200
H1551       H  0.61874810  0.62468026  0.56324486     0.35900
H1552       H  0.58960589  0.60224922  0.57296509     0.41000
H1553       H  0.59817919  0.55863232  0.94177988     0.40600
H1554       H  0.62821546  0.58050443  0.93573780     0.35500
C1555       C  0.10844074  0.97615337  0.87418055    -0.26200
C1556       C  0.13495433  0.97019260  0.88846918    -0.14300
C1557       C  0.13917998  0.94128652  0.89996248     0.36300
C1558       C  0.11559536  0.92057556  0.90027517    -0.25700
C1559       C  0.08779406  0.92806656  0.88897895    -0.14900
C1560       C  0.08510847  0.95549831  0.87420958     0.37400
N1561       N  0.05822819  0.96305716  0.86002510    -0.89200
H1562       H  0.10496694  0.99777227  0.86430576     0.18500
H1563       H  0.11850009  0.89935328  0.91108085     0.18500
N1564       N  0.16668700  0.93336353  0.91278667    -0.88200
H1565       H  0.06354551  0.96726152  0.83832545     0.35900
H1566       H  0.04969432  0.98269463  0.86909148     0.41000
H1567       H  0.17526968  0.91461929  0.90211909     0.40600
H1568       H  0.16222169  0.92743138  0.93427161     0.35500
C1569       C  0.95814190  0.08322705  0.63194509    -0.26200
C1570       C  0.93215618  0.08865730  0.61655447    -0.14300
C1571       C  0.92847713  0.11721786  0.60378651     0.36300
C1572       C  0.95183570  0.13783030  0.60381603    -0.25700
C1573       C  0.97925198  0.13071582  0.61590854    -0.14900
C1574       C  0.98170056  0.10378643  0.63167221     0.37400
N1575       N  0.00868318  0.09666707  0.64611338    -0.89200
H1576       H  0.96100355  0.06196805  0.64269456     0.18500
H1577       H  0.94928872  0.15859324  0.59211544     0.18500
N1578       N  0.90208736  0.12552681  0.58915129    -0.88200
H1579       H  0.00712035  0.07587553  0.65627780     0.35900
H1580       H  0.01116339  0.11237522  0.66237857     0.41000
H1581       H  0.88380813  0.12277611  0.60330046     0.40600
H1582       H  0.89986302  0.11184845  0.57123986     0.35500
C1583       C  0.81638228  0.01607334  0.99698405    -0.26200
C1584       C  0.80880180  0.01706459  0.52658518    -0.14300
C1585       C  0.77871632  0.02106768  0.53526791     0.36300
C1586       C  0.75657131  0.02025647  0.51446785    -0.25700
C1587       C  0.76447572  0.01234942  0.98386506    -0.14900
C1588       C  0.79469071  0.01627120  0.97569466     0.37400
N1589       N  0.80342432  0.02023968  0.94591275    -0.89200
H1590       H  0.83948676  0.01904637  0.99047153     0.18500
H1591       H  0.73352660  0.02299119  0.52138674     0.18500
N1592       N  0.77057947  0.02558792  0.56508995    -0.88200
H1593       H  0.82654817  0.02156042  0.94350918     0.35900
H1594       H  0.79503214  0.04083589  0.93924529     0.41000
H1595       H  0.77520602  0.00582337  0.57614339     0.40600
H1596       H  0.74769077  0.02922828  0.56763836     0.35500
C1597       C  0.94141374  0.98382760  0.99585308    -0.26200
C1598       C  0.95233672  0.98542481  0.52541425    -0.14300
C1599       C  0.97348611  0.96363254  0.53286432     0.36300
C1600       C  0.98825623  0.94773446  0.51097382    -0.25700
C1601       C  0.97759982  0.94664219  0.98031186    -0.14900
C1602       C  0.95596273  0.96824932  0.97361126     0.37400
N1603       N  0.94791600  0.97382072  0.94443684    -0.89200
H1604       H  0.92365655  0.99913109  0.99051712     0.18500
H1605       H  0.00308541  0.92972610  0.51679455     0.18500
N1606       N  0.97882421  0.95672631  0.56255343    -0.88200
H1607       H  0.95144565  0.99637988  0.93990924     0.35900
H1608       H  0.92521300  0.96960548  0.94274889     0.41000
H1609       H  0.98794756  0.97565933  0.57175611     0.40600
H1610       H  0.99466481  0.93972229  0.56423416     0.35500
C1611       C  0.10017168  0.63204817  0.58581461    -0.26200
C1612       C  0.07430171  0.62851387  0.60312251    -0.14300
C1613       C  0.07283924  0.60436399  0.62279661     0.36300
C1614       C  0.09594607  0.58303163  0.62266611    -0.25700
C1615       C  0.12066275  0.58522120  0.60349853    -0.14900
C1616       C  0.12312171  0.61088106  0.58565924     0.37400
N1617       N  0.14776037  0.61553238  0.56598191    -0.89200
H1618       H  0.10190697  0.65054256  0.57077837     0.18500
H1619       H  0.09395404  0.56383610  0.63681718     0.18500
N1620       N  0.04757138  0.60093763  0.64215138    -0.88200
H1621       H  0.14859730  0.59824122  0.55102196     0.35900
H1622       H  0.16729787  0.61562102  0.57760618     0.41000
H1623       H  0.04744633  0.61895584  0.65630607     0.40600
H1624       H  0.04978603  0.58175632  0.65480219     0.35500
C1625       C  0.00338828  0.75268046  0.48991391    -0.26200
C1626       C  0.00488491  0.75767397  0.51971255    -0.14300
C1627       C  0.00908629  0.78701494  0.52949488     0.36300
C1628       C  0.01117730  0.81055625  0.50928714    -0.25700
C1629       C  0.01183573  0.80219391  0.97599508    -0.14900
C1630       C  0.01452672  0.77223924  0.96706756     0.37400
N1631       N  0.01993074  0.76521350  0.93721090    -0.89200
H1632       H  0.01314063  0.72623706  0.98069324     0.18500
H1633       H  0.01385565  0.83309450  0.51695682     0.18500
N1634       N  0.01070748  0.79296516  0.55978677    -0.88200
H1635       H  0.02022133  0.74215517  0.93420483     0.35900
H1636       H  0.04129096  0.77264313  0.93154744     0.41000
H1637       H  0.98999509  0.78796562  0.56932315     0.40600
H1638       H  0.01423728  0.81563069  0.56330077     0.35500
C1639       C  0.92650519  0.44116554  0.90094254    -0.26200
C1640       C  0.93301554  0.46703337  0.88487281    -0.14300
C1641       C  0.96001287  0.46809958  0.86865788     0.36300
C1642       C  0.98099469  0.44495619  0.87116542    -0.25700
C1643       C  0.97587732  0.42057001  0.88982915    -0.14900
C1644       C  0.94754528  0.41826510  0.90390050     0.37400
N1645       N  0.93986395  0.39393785  0.92268543    -0.89200
H1646       H  0.90578398  0.43968540  0.91332519     0.18500
H1647       H  0.00214830  0.44705151  0.85961109     0.18500
N1648       N  0.96681276  0.49315231  0.85045158    -0.88200
H1649       H  0.95398888  0.39389511  0.94014347     0.35900
H1650       H  0.94243944  0.37406334  0.91125719     0.41000
H1651       H  0.97074082  0.48534747  0.82951441     0.40600
H1652       H  0.98643946  0.50273066  0.85742344     0.35500
C1653       C  0.78347025  0.53290322  0.96814147    -0.26200
C1654       C  0.81245058  0.53830056  0.97695624    -0.14300
C1655       C  0.81359156  0.54636456  0.50487708     0.36300
C1656       C  0.78900446  0.54610211  0.52438632    -0.25700
C1657       C  0.76014362  0.54031150  0.51525024    -0.14900
C1658       C  0.75923916  0.53277542  0.98783085     0.37400
N1659       N  0.73043303  0.52749861  0.97662732    -0.89200
H1660       H  0.77934693  0.52976647  0.94549343     0.18500
H1661       H  0.79250871  0.55039422  0.54695679     0.18500
N1662       N  0.84288121  0.55142584  0.51534579    -0.88200
H1663       H  0.71731105  0.54659721  0.97933955     0.35900
H1664       H  0.72067983  0.50961582  0.98780196     0.41000
H1665       H  0.85507134  0.53171293  0.51248342     0.40600
H1666       H  0.84206065  0.55549667  0.53749497     0.35500
C1667       C  0.96503815  0.58290535  0.52067765    -0.26200
C1668       C  0.97844936  0.60961582  0.51163970    -0.14300
C1669       C  0.98722745  0.61472324  0.98585409     0.36300
C1670       C  0.97235624  0.59773091  0.96577130    -0.25700
C1671       C  0.95078034  0.57693241  0.97473804    -0.14900
C1672       C  0.95260767  0.56367734  0.50069335     0.37400
N1673       N  0.93894834  0.53632701  0.51015002    -0.89200
H1674       H  0.96329317  0.57758174  0.54344901     0.18500
H1675       H  0.97630897  0.60232237  0.94305128     0.18500
N1676       N  0.00737928  0.63742672  0.97597658    -0.88200
H1677       H  0.94065865  0.53364732  0.53241971     0.35900
H1678       H  0.95109381  0.51886810  0.50064482     0.41000
H1679       H  0.99580408  0.65223100  0.96286708     0.40600
H1680       H  0.02416314  0.62734118  0.96334722     0.35500
C1681       C  0.90635259  0.85697401  0.81907536    -0.26200
C1682       C  0.87701061  0.85513926  0.83104386    -0.14300
C1683       C  0.87391261  0.86011358  0.86123780     0.36300
C1684       C  0.89916394  0.86639703  0.87768196    -0.25700
C1685       C  0.92813236  0.86648045  0.86527947    -0.14900
C1686       C  0.93131487  0.86218096  0.83548471     0.37400
N1687       N  0.96012152  0.86214951  0.82153240    -0.89200
H1688       H  0.91089823  0.85246054  0.79655185     0.18500
H1689       H  0.89611025  0.86981631  0.90065236     0.18500
N1690       N  0.84559787  0.85781428  0.87584076    -0.88200
H1691       H  0.96030626  0.87854603  0.80545210     0.35900
H1692       H  0.96342527  0.84147593  0.81165813     0.41000
H1693       H  0.84089033  0.87824684  0.88569442     0.40600
H1694       H  0.84733417  0.84188154  0.89222387     0.35500
C1695       C  0.85639253  0.87653123  0.73532654    -0.26200
C1696       C  0.84414054  0.85245854  0.71963000    -0.14300
C1697       C  0.84275459  0.82594595  0.73540269     0.36300
C1698       C  0.85864453  0.82208571  0.76019469    -0.25700
C1699       C  0.86030789  0.84515157  0.77951588    -0.14900
C1700       C  0.86055327  0.87405889  0.76574285     0.37400
N1701       N  0.86474216  0.90108585  0.78125517    -0.89200
H1702       H  0.86047593  0.89789805  0.72542439     0.18500
H1703       H  0.86172362  0.80018843  0.76701883     0.18500
N1704       N  0.82256152  0.80364891  0.72790833    -0.88200
H1705       H  0.88587441  0.90116447  0.78982416     0.35900
H1706       H  0.84877786  0.90265525  0.79785937     0.41000
H1707       H  0.83484073  0.78460510  0.72598231     0.40600
H1708       H  0.80601930  0.80038422  0.74350307     0.35500
C1709       C  0.86230325  0.87819811  0.64690833    -0.26200
C1710       C  0.84375317  0.88132459  0.67174557    -0.14300
C1711       C  0.83422489  0.91118134  0.67915622     0.36300
C1712       C  0.84376946  0.93539341  0.66242968    -0.25700
C1713       C  0.86204227  0.93201769  0.63793485    -0.14900
C1714       C  0.87175654  0.90299257  0.63021697     0.37400
N1715       N  0.89081855  0.89854663  0.60521747    -0.89200
H1716       H  0.86892828  0.85629719  0.63967890     0.18500
H1717       H  0.83601645  0.95741746  0.66860221     0.18500
N1718       N  0.81415255  0.91859963  0.70287757    -0.88200
H1719       H  0.89490060  0.87587022  0.60184202     0.35900
H1720       H  0.91136246  0.90805023  0.60948916     0.41000
H1721       H  0.80908393  0.90113471  0.71682424     0.40600
H1722       H  0.79418053  0.92611633  0.69437009     0.35500
C1723       C  0.77175007  0.84097791  0.79009603    -0.26200
C1724       C  0.75545559  0.85842080  0.80959297    -0.14300
C1725       C  0.77426317  0.87776052  0.82586419     0.36300
C1726       C  0.80583514  0.87218547  0.82716999    -0.25700
C1727       C  0.81908570  0.84632197  0.81484179    -0.14900
C1728       C  0.79920526  0.82959742  0.79802265     0.37400
N1729       N  0.80215367  0.79830867  0.79451633    -0.89200
H1730       H  0.75967340  0.82816785  0.77503101     0.18500
H1731       H  0.81949029  0.88820583  0.83779885     0.18500
N1732       N  0.76293986  0.90476634  0.83815489    -0.88200
H1733       H  0.79996346  0.78770850  0.81450410     0.35900
H1734       H  0.82196259  0.79285537  0.78651274     0.41000
H1735       H  0.76915118  0.90527285  0.85966400     0.40600
H1736       H  0.77355171  0.92255153  0.82760447     0.35500
C1737       C  0.71517167  0.87266496  0.86339662    -0.26200
C1738       C  0.70631320  0.87512221  0.83449737    -0.14300
C1739       C  0.68916900  0.90068755  0.82720121     0.36300
C1740       C  0.68784110  0.92519092  0.84581724    -0.25700
C1741       C  0.70092114  0.92433584  0.87275380    -0.14900
C1742       C  0.71280510  0.89698970  0.88255001     0.37400
N1743       N  0.72518728  0.89481471  0.91066378    -0.89200
H1744       H  0.72692444  0.85279464  0.87010285     0.18500
H1745       H  0.67622564  0.94516017  0.83909784     0.18500
N1746       N  0.67229615  0.90211643  0.80159179    -0.88200
H1747       H  0.73544749  0.87409053  0.91348077     0.35900
H1748       H  0.70753921  0.89569561  0.92576420     0.41000
H1749       H  0.64986769  0.90444241  0.80769669     0.40600
H1750       H  0.67845313  0.92128280  0.79007662     0.35500
C1751       C  0.70652490  0.87424641  0.73157503    -0.26200
C1752       C  0.69215803  0.84821690  0.72098057    -0.14300
C1753       C  0.67654730  0.83184125  0.74235419     0.36300
C1754       C  0.68299488  0.83581394  0.77166493    -0.25700
C1755       C  0.70572829  0.85526803  0.78120076    -0.14900
C1756       C  0.71528748  0.87660380  0.76044872     0.37400
N1757       N  0.73450781  0.90037917  0.76818599    -0.89200
H1758       H  0.71539396  0.89052852  0.71635744     0.18500
H1759       H  0.66980771  0.82256331  0.78612695     0.18500
N1760       N  0.65286249  0.81263161  0.73519045    -0.88200
H1761       H  0.72430444  0.92054357  0.76281201     0.35900
H1762       H  0.75412070  0.89855761  0.75567358     0.41000
H1763       H  0.63327055  0.82122633  0.74459746     0.40600
H1764       H  0.65651818  0.79190218  0.74456991     0.35500
C1765       C  0.68194558  0.84505603  0.63729830    -0.26200
C1766       C  0.68058879  0.85474996  0.66631914    -0.14300
C1767       C  0.65633553  0.87422757  0.67391565     0.36300
C1768       C  0.63234730  0.87779006  0.65538045    -0.25700
C1769       C  0.63196477  0.86391889  0.62850761    -0.14900
C1770       C  0.65796371  0.84868256  0.61884687     0.37400
N1771       N  0.66010549  0.83493776  0.59111666    -0.89200
H1772       H  0.70065118  0.83183516  0.62955732     0.18500
H1773       H  0.61356831  0.89143626  0.66235712     0.18500
N1774       N  0.65523468  0.89050707  0.70029001    -0.88200
H1775       H  0.65851188  0.85145518  0.57529259     0.35900
H1776       H  0.64246867  0.82008306  0.58932862     0.41000
H1777       H  0.63590949  0.88455236  0.71191992     0.40600
H1778       H  0.65393698  0.91321331  0.69533741     0.35500
C1779       C  0.74777293  0.86294732  0.66546570    -0.26200
C1780       C  0.73411611  0.84531307  0.68725377    -0.14300
C1781       C  0.75308292  0.83432974  0.70918326     0.36300
C1782       C  0.78019934  0.84766321  0.71262340    -0.25700
C1783       C  0.79643583  0.85751794  0.68847819    -0.14900
C1784       C  0.77922220  0.86589168  0.66404481     0.37400
N1785       N  0.79330882  0.87646072  0.63783390    -0.89200
H1786       H  0.73478580  0.87153033  0.64804515     0.18500
H1787       H  0.78985954  0.84591125  0.73334280     0.18500
N1788       N  0.74655476  0.80911978  0.72750005    -0.88200
H1789       H  0.77746318  0.88251731  0.62282628     0.35900
H1790       H  0.80527745  0.85861681  0.62884484     0.41000
H1791       H  0.74298673  0.79011416  0.71548088     0.40600
H1792       H  0.72852098  0.81245280  0.74133137     0.35500
C1793       C  0.68163975  0.77469727  0.82651511    -0.26200
C1794       C  0.70263011  0.75708837  0.80971355    -0.14300
C1795       C  0.72872066  0.77250229  0.80078241     0.36300
C1796       C  0.73531249  0.79820570  0.81559803    -0.25700
C1797       C  0.71388845  0.81915633  0.82281286    -0.14900
C1798       C  0.68622898  0.80599761  0.83145593     0.37400
N1799       N  0.66321578  0.82380990  0.84499771    -0.89200
H1800       H  0.66169173  0.76494511  0.83563550     0.18500
H1801       H  0.75683848  0.80143328  0.82343355     0.18500
N1802       N  0.75038504  0.76166022  0.77980120    -0.88200
H1803       H  0.64456482  0.81076166  0.84986813     0.35900
H1804       H  0.65636042  0.84002728  0.83038820     0.41000
H1805       H  0.74412683  0.74260022  0.76919617     0.40600
H1806       H  0.76965100  0.75581349  0.79009547     0.35500
C1807       C  0.62027623  0.70759119  0.83395727    -0.26200
C1808       C  0.62446152  0.69300859  0.86020971    -0.14300
C1809       C  0.65365027  0.68429671  0.86717302     0.36300
C1810       C  0.67790790  0.69201497  0.84886563    -0.25700
C1811       C  0.67424144  0.70935149  0.82372078    -0.14900
C1812       C  0.64443343  0.71573852  0.81583171     0.37400
N1813       N  0.63833260  0.73188501  0.79001078    -0.89200
H1814       H  0.59804028  0.71376169  0.82773900     0.18500
H1815       H  0.69979625  0.68505154  0.85524464     0.18500
N1816       N  0.65903813  0.66790352  0.89307356    -0.88200
H1817       H  0.62662101  0.75130221  0.79553704     0.35900
H1818       H  0.62455963  0.71875819  0.77760777     0.41000
H1819       H  0.67358692  0.68022420  0.90540904     0.40600
H1820       H  0.66960637  0.64788544  0.88743669     0.35500
C1821       C  0.69801977  0.68012713  0.73062343    -0.26200
C1822       C  0.69740761  0.70530356  0.71181413    -0.14300
C1823       C  0.68262238  0.72947700  0.72548673     0.36300
C1824       C  0.69206189  0.73643181  0.75282224    -0.25700
C1825       C  0.69737503  0.71340685  0.77306723    -0.14900
C1826       C  0.69564290  0.68376496  0.76116721     0.37400
N1827       N  0.69046920  0.65741455  0.77834646    -0.89200
H1828       H  0.70049416  0.65784661  0.72262820     0.18500
H1829       H  0.68784110  0.75882785  0.75984651     0.18500
N1830       N  0.65067388  0.73023399  0.72431300    -0.88200
H1831       H  0.70707747  0.64174301  0.77334643     0.35900
H1832       H  0.69166037  0.66168757  0.80022365     0.41000
H1833       H  0.64265789  0.71352191  0.71103870     0.40600
H1834       H  0.64324353  0.75096321  0.71734291     0.35500
C1835       C  0.71546969  0.65185079  0.66944709    -0.26200
C1836       C  0.70237861  0.67970036  0.66212318    -0.14300
C1837       C  0.68550043  0.68024780  0.63669330     0.36300
C1838       C  0.68255443  0.65405053  0.62016916    -0.25700
C1839       C  0.69642368  0.62699016  0.62781426    -0.14900
C1840       C  0.71321497  0.62631816  0.65270365     0.37400
N1841       N  0.72947354  0.60010649  0.66055626    -0.89200
H1842       H  0.73045597  0.65016460  0.68714065     0.18500
H1843       H  0.66962111  0.65512308  0.60087167     0.18500
N1844       N  0.67206971  0.70712292  0.62663981    -0.88200
H1845       H  0.72250753  0.59376939  0.68135977     0.35900
H1846       H  0.75201483  0.60554083  0.66101537     0.41000
H1847       H  0.64925805  0.70348969  0.62503838     0.40600
H1848       H  0.68080524  0.71179606  0.60601364     0.35500
C1849       C  0.67645096  0.75352064  0.67066510    -0.26200
C1850       C  0.70478670  0.73991350  0.66693062    -0.14300
C1851       C  0.72632497  0.76061113  0.65700880     0.36300
C1852       C  0.72374839  0.79051323  0.66475503    -0.25700
C1853       C  0.69877968  0.80291996  0.68018454    -0.14900
C1854       C  0.67295668  0.78442816  0.67767261     0.37400
N1855       N  0.64303186  0.79564691  0.67991887    -0.89200
H1856       H  0.65692861  0.73968645  0.67049979     0.18500
H1857       H  0.74120454  0.80436021  0.65584183     0.18500
N1858       N  0.74631355  0.75386683  0.63341809    -0.88200
H1859       H  0.63347810  0.79297294  0.65985260     0.35900
H1860       H  0.64227091  0.81826611  0.68415736     0.41000
H1861       H  0.76748374  0.76182837  0.63763878     0.40600
H1862       H  0.73908851  0.76541005  0.61526849     0.35500
C1863       C  0.77967726  0.72841291  0.83671156    -0.26200
C1864       C  0.79800186  0.70880826  0.82012981    -0.14300
C1865       C  0.78154030  0.68527312  0.80718385     0.36300
C1866       C  0.75073219  0.68869498  0.80286678    -0.25700
C1867       C  0.73298626  0.71030684  0.81736886    -0.14900
C1868       C  0.74846108  0.72584943  0.83906238     0.37400
N1869       N  0.73352204  0.74045386  0.86295929    -0.89200
H1870       H  0.78833200  0.74571056  0.84902469     0.18500
H1871       H  0.74129205  0.67301441  0.78874967     0.18500
N1872       N  0.79394714  0.65634702  0.80087929    -0.88200
H1873       H  0.73760687  0.76328653  0.86185881     0.35900
H1874       H  0.71065018  0.73730737  0.86306163     0.41000
H1875       H  0.81643326  0.65485069  0.80448859     0.40600
H1876       H  0.79063561  0.65080740  0.77953100     0.35500
C1877       C  0.87563166  0.67442400  0.83566029    -0.26200
C1878       C  0.84580862  0.68415909  0.83868703    -0.14300
C1879       C  0.82773880  0.66843152  0.85966006     0.36300
C1880       C  0.83703112  0.64098690  0.87064298    -0.25700
C1881       C  0.86504693  0.62921469  0.86398017    -0.14900
C1882       C  0.88512062  0.64682490  0.84736152     0.37400
N1883       N  0.91476196  0.63638476  0.84140114    -0.89200
H1884       H  0.89109485  0.68700392  0.82216759     0.18500
H1885       H  0.82222755  0.62919552  0.88553278     0.18500
N1886       N  0.80031622  0.68025924  0.87120774    -0.88200
H1887       H  0.92949390  0.65230916  0.84884545     0.35900
H1888       H  0.91787508  0.63488877  0.81906525     0.41000
H1889       H  0.80208264  0.68236790  0.89350299     0.40600
H1890       H  0.78341004  0.66501406  0.86743718     0.35500
C1891       C  0.87403367  0.75267185  0.81384937    -0.26200
C1892       C  0.84863255  0.74106201  0.82887214    -0.14300
C1893       C  0.83870352  0.76079825  0.85124288     0.36300
C1894       C  0.84105713  0.79215215  0.84684477    -0.25700
C1895       C  0.85802790  0.80431996  0.82338927    -0.14900
C1896       C  0.87972031  0.78386512  0.81228245     0.37400
N1897       N  0.90696457  0.79433832  0.79927533    -0.89200
H1898       H  0.88887141  0.73761147  0.80237274     0.18500
H1899       H  0.82821278  0.80657666  0.86096895     0.18500
N1900       N  0.83107082  0.75025283  0.87976158    -0.88200
H1901       H  0.90953821  0.78576507  0.77853387     0.35900
H1902       H  0.92439918  0.78587476  0.81131387     0.41000
H1903       H  0.83047254  0.72710547  0.88029664     0.40600
H1904       H  0.81044241  0.75877285  0.88667848     0.35500
C1905       C  0.86787238  0.77372488  0.67618451    -0.26200
C1906       C  0.84237290  0.75513129  0.68097357    -0.14300
C1907       C  0.81489802  0.77110549  0.67784432     0.36300
C1908       C  0.81443382  0.80098308  0.66784463    -0.25700
C1909       C  0.83812394  0.82079305  0.67350827    -0.14900
C1910       C  0.86604220  0.80577521  0.67528041     0.37400
N1911       N  0.89247862  0.82273251  0.67874014    -0.89200
H1912       H  0.88981030  0.76433749  0.67658574     0.18500
H1913       H  0.79257973  0.80963545  0.66406845     0.18500
N1914       N  0.78947073  0.76401539  0.69566746    -0.88200
H1915       H  0.90752222  0.81703521  0.66207884     0.35900
H1916       H  0.90179103  0.81636086  0.69821441     0.41000
H1917       H  0.79501416  0.75296710  0.71459347     0.40600
H1918       H  0.77404584  0.75279182  0.68412862     0.35500
C1919       C  0.83320627  0.73173241  0.76873698    -0.26200
C1920       C  0.84176534  0.70704662  0.78517235    -0.14300
C1921       C  0.85662936  0.68417433  0.76796662     0.36300
C1922       C  0.85971856  0.68799795  0.73701956    -0.25700
C1923       C  0.85122068  0.71539012  0.72358914    -0.14900
C1924       C  0.84845704  0.73839183  0.74303133     0.37400
N1925       N  0.87468617  0.75564022  0.74662148    -0.89200
H1926       H  0.82011250  0.74846555  0.77889291     0.18500
H1927       H  0.86641174  0.66924083  0.72375725     0.18500
N1928       N  0.86621758  0.65658892  0.78006108    -0.88200
H1929       H  0.88211355  0.76512886  0.72733968     0.35900
H1930       H  0.89160173  0.74192310  0.75425033     0.41000
H1931       H  0.88891936  0.65421680  0.77514750     0.40600
H1932       H  0.85520950  0.63934822  0.76984036     0.35500
C1933       C  0.92488432  0.70270889  0.66038954    -0.26200
C1934       C  0.91965118  0.69141751  0.63318676    -0.14300
C1935       C  0.89008122  0.68372404  0.62686499     0.36300
C1936       C  0.86671826  0.68980664  0.64680734    -0.25700
C1937       C  0.87110721  0.70554123  0.67261721    -0.14900
C1938       C  0.90165975  0.70944417  0.67999794     0.37400
N1939       N  0.91006627  0.72016482  0.70746276    -0.89200
H1940       H  0.94748315  0.70693742  0.66665474     0.18500
H1941       H  0.84524874  0.68177510  0.64134655     0.18500
N1942       N  0.88271757  0.66999766  0.60027990    -0.88200
H1943       H  0.92378594  0.73870259  0.70442137     0.35900
H1944       H  0.92259362  0.70357718  0.71744891     0.41000
H1945       H  0.89424269  0.64979188  0.59843273     0.40600
H1946       H  0.88908903  0.68413871  0.58327407     0.35500
C1947       C  0.79815089  0.70712877  0.65817351    -0.26200
C1948       C  0.81226549  0.70540303  0.68519673    -0.14300
C1949       C  0.79248813  0.69567658  0.70801338     0.36300
C1950       C  0.76176740  0.70002018  0.70662304    -0.25700
C1951       C  0.74757785  0.70392561  0.68048755    -0.14900
C1952       C  0.76714726  0.70121265  0.65553492     0.37400
N1953       N  0.75658873  0.69068590  0.62839624    -0.89200
H1954       H  0.81056905  0.71398601  0.63903154     0.18500
H1955       H  0.74956953  0.69832894  0.72674094     0.18500
N1956       N  0.80220916  0.67963481  0.73232945    -0.88200
H1957       H  0.77377174  0.69057853  0.61275827     0.35900
H1958       H  0.73966594  0.70411193  0.62064633     0.41000
H1959       H  0.79418487  0.69096243  0.75050622     0.40600
H1960       H  0.79248163  0.65856484  0.73192010     0.35500
C1961       C  0.18663276  0.36251690  0.85342703    -0.26200
C1962       C  0.18582328  0.34228592  0.83029796    -0.14300
C1963       C  0.15767292  0.32977557  0.82426706     0.36300
C1964       C  0.13240737  0.33611967  0.84167973    -0.25700
C1965       C  0.13374245  0.35484624  0.86553858    -0.14900
C1966       C  0.16140356  0.36854936  0.87108876     0.37400
N1967       N  0.16499345  0.38843766  0.89472404    -0.89200
H1968       H  0.20708183  0.37343549  0.85865720     0.18500
H1969       H  0.11159241  0.32561533  0.83665557     0.18500
N1970       N  0.15464576  0.30931346  0.80112802    -0.88200
H1971       H  0.15974389  0.37717709  0.91394575     0.35900
H1972       H  0.15072489  0.40667801  0.89233406     0.41000
H1973       H  0.13887104  0.31811418  0.78731462     0.40600
H1974       H  0.14603962  0.28948825  0.80971010     0.35500
C1975       C  0.19622283  0.36723737  0.73584689    -0.26200
C1976       C  0.20567913  0.34329824  0.71781123    -0.14300
C1977       C  0.20073166  0.31587343  0.73239534     0.36300
C1978       C  0.21252310  0.31348262  0.75959587    -0.25700
C1979       C  0.20817120  0.33712695  0.77932495    -0.14900
C1980       C  0.19544057  0.36355394  0.76664963     0.37400
N1981       N  0.18180764  0.38615437  0.78433200    -0.89200
H1982       H  0.18878168  0.38805799  0.72673723     0.18500
H1983       H  0.21466957  0.29092751  0.76678180     0.18500
N1984       N  0.17067246  0.30480531  0.73206137    -0.88200
H1985       H  0.19108015  0.40673593  0.77873174     0.35900
H1986       H  0.15935238  0.38726547  0.77926957     0.41000
H1987       H  0.15588346  0.32205145  0.73757779     0.40600
H1988       H  0.16662607  0.28839228  0.74766354     0.35500
C1989       C  0.20265395  0.42834825  0.66000762    -0.26200
C1990       C  0.18551613  0.42495477  0.63582208    -0.14300
C1991       C  0.17661641  0.39596365  0.62850597     0.36300
C1992       C  0.18610783  0.37113547  0.64472490    -0.25700
C1993       C  0.20429792  0.37393550  0.66899086    -0.14900
C1994       C  0.21317494  0.40402923  0.67569118     0.37400
N1995       N  0.23627024  0.41164334  0.69489774    -0.89200
H1996       H  0.21029965  0.45036781  0.66560476     0.18500
H1997       H  0.17987311  0.34944104  0.63713021     0.18500
N1998       N  0.15818722  0.39136763  0.60432823    -0.88200
H1999       H  0.25700413  0.40738972  0.68513870     0.35900
H2000       H  0.23398080  0.40206625  0.71515008     0.41000
H2001       H  0.13882947  0.38065951  0.61168913     0.40600
H2002       H  0.16945883  0.37714823  0.58994023     0.35500
C2003       C  0.20105708  0.15453914  0.82144159    -0.26200
C2004       C  0.21773020  0.17874361  0.83199682    -0.14300
C2005       C  0.22122472  0.17842822  0.86276916     0.36300
C2006       C  0.21490887  0.15246593  0.87908838    -0.25700
C2007       C  0.20365618  0.12678839  0.86654414    -0.14900
C2008       C  0.19475669  0.12882464  0.83782163     0.37400
N2009       N  0.17820438  0.10554819  0.82485707    -0.89200
H2010       H  0.19243578  0.15470543  0.80016852     0.18500
H2011       H  0.21922389  0.15239293  0.90192881     0.18500
N2012       N  0.23000757  0.20432920  0.87834978    -0.88200
H2013       H  0.15918522  0.10145780  0.83770231     0.35900
H2014       H  0.19126067  0.08624856  0.82402969     0.41000
H2015       H  0.24705212  0.19861819  0.89222049     0.40600
H2016       H  0.21204458  0.21055101  0.89183454     0.35500
C2017       C  0.21275001  0.24766042  0.83765306    -0.26200
C2018       C  0.23441992  0.23481212  0.81859636    -0.14300
C2019       C  0.25259281  0.25577726  0.80307193     0.36300
C2020       C  0.24788986  0.28670548  0.80573435    -0.25700
C2021       C  0.22271768  0.29888311  0.81988910    -0.14900
C2022       C  0.20770857  0.27894073  0.83946953     0.37400
N2023       N  0.18791607  0.28965036  0.86180816    -0.89200
H2024       H  0.19706336  0.23363916  0.84921316     0.18500
H2025       H  0.26189873  0.30156776  0.79303178     0.18500
N2026       N  0.27547298  0.24592450  0.78332427    -0.88200
H2027       H  0.19641149  0.28312062  0.88159667     0.35900
H2028       H  0.16736311  0.27926225  0.85977806     0.41000
H2029       H  0.28443297  0.26397920  0.77210836     0.40600
H2030       H  0.26536521  0.23331380  0.76777053     0.35500
C2031       C  0.17979039  0.26764946  0.67968885    -0.26200
C2032       C  0.20563946  0.25043246  0.67389261    -0.14300
C2033       C  0.22585840  0.26484032  0.65440506     0.36300
C2034       C  0.22896097  0.29567504  0.65567965    -0.25700
C2035       C  0.20789209  0.31407613  0.67020730    -0.14900
C2036       C  0.17990838  0.29926002  0.67500916     0.37400
N2037       N  0.15232211  0.31517740  0.67895015    -0.89200
H2038       H  0.16007556  0.25711587  0.68878942     0.18500
H2039       H  0.24923961  0.30330682  0.64616488     0.18500
N2040       N  0.24486139  0.24851966  0.63485924    -0.88200
H2041       H  0.15560871  0.33803064  0.68036707     0.35900
H2042       H  0.13961995  0.31120730  0.66090469     0.41000
H2043       H  0.26673078  0.25358983  0.63956866     0.40600
H2044       H  0.24099087  0.25612793  0.61398294     0.35500
C2045       C  0.19880768  0.23006467  0.73892372    -0.26200
C2046       C  0.20813015  0.20945067  0.71826170    -0.14300
C2047       C  0.21600562  0.18073703  0.72924968     0.36300
C2048       C  0.22070722  0.17635205  0.75914755    -0.25700
C2049       C  0.21904245  0.20025420  0.77885562    -0.14900
C2050       C  0.20072990  0.22414854  0.76864495     0.37400
N2051       N  0.17761395  0.23689374  0.78643281    -0.89200
H2052       H  0.18782242  0.24970973  0.73191805     0.18500
H2053       H  0.22879351  0.15480474  0.76617026     0.18500
N2054       N  0.22061927  0.15628506  0.70995673    -0.88200
H2055       H  0.18330906  0.25868106  0.79107764     0.35900
H2056       H  0.17392729  0.22427137  0.80512184     0.41000
H2057       H  0.24232776  0.14837164  0.71219522     0.40600
H2058       H  0.20605064  0.13928219  0.71632130     0.35500
C2059       C  0.13638913  0.18721102  0.66039307    -0.26200
C2060       C  0.13989525  0.18848530  0.63050416    -0.14300
C2061       C  0.16907332  0.19161761  0.61862297     0.36300
C2062       C  0.19309586  0.19696941  0.63702542    -0.25700
C2063       C  0.18929657  0.19848739  0.66738207    -0.14900
C2064       C  0.16006256  0.19189173  0.67872083     0.37400
N2065       N  0.15317020  0.19123960  0.70899557    -0.89200
H2066       H  0.11451459  0.18342128  0.67004699     0.18500
H2067       H  0.21449960  0.20197358  0.62721842     0.18500
N2068       N  0.17422290  0.19059764  0.58795480    -0.88200
H2069       H  0.14463940  0.17025602  0.71435873     0.35900
H2070       H  0.13672993  0.20722422  0.71355606     0.41000
H2071       H  0.16974503  0.16890964  0.58134048     0.40600
H2072       H  0.19664355  0.19430585  0.58269064     0.35500
C2073       C  0.42179281  0.21238315  0.81353608    -0.26200
C2074       C  0.39375138  0.20019432  0.82166196    -0.14300
C2075       C  0.39522136  0.17472025  0.83974777     0.36300
C2076       C  0.42087612  0.16961851  0.85612649    -0.25700
C2077       C  0.44641980  0.18759981  0.85278786    -0.14900
C2078       C  0.44722573  0.20792247  0.82956724     0.37400
N2079       N  0.47332657  0.22441126  0.82144140    -0.89200
H2080       H  0.42416649  0.22623208  0.79449451     0.18500
H2081       H  0.42085682  0.15115733  0.87124589     0.18500
N2082       N  0.37334286  0.15182981  0.83857086    -0.88200
H2083       H  0.49082430  0.20945685  0.81740569     0.35900
H2084       H  0.47865228  0.23853138  0.83830018     0.41000
H2085       H  0.36741827  0.14549721  0.85965057     0.40600
H2086       H  0.38347872  0.13325445  0.82891697     0.35500
C2087       C  0.31955600  0.18665146  0.78655558    -0.26200
C2088       C  0.33452439  0.19606078  0.81137533    -0.14300
C2089       C  0.31773258  0.19018416  0.83698529     0.36300
C2090       C  0.28599158  0.18872560  0.83578324    -0.25700
C2091       C  0.26973878  0.18997327  0.80972272    -0.14900
C2092       C  0.28863154  0.18379772  0.78513788     0.37400
N2093       N  0.27801075  0.17603815  0.75764283    -0.89200
H2094       H  0.33088284  0.18263501  0.76644551     0.18500
H2095       H  0.27482196  0.18780993  0.85595666     0.18500
N2096       N  0.33184974  0.18844255  0.86443170    -0.88200
H2097       H  0.28559801  0.19160936  0.74238792     0.35900
H2098       H  0.28680340  0.15521558  0.75191873     0.41000
H2099       H  0.34481511  0.20720312  0.86782772     0.40600
H2100       H  0.31612147  0.18702659  0.88137661     0.35500
C2101       C  0.29489492  0.22976410  0.69701631    -0.26200
C2102       C  0.31099565  0.20825985  0.68116017    -0.14300
C2103       C  0.29275510  0.19045223  0.66270682     0.36300
C2104       C  0.26111409  0.19103147  0.66545205    -0.25700
C2105       C  0.24615381  0.21265792  0.68220826    -0.14900
C2106       C  0.26424945  0.23288243  0.69714610     0.37400
N2107       N  0.25150320  0.25896146  0.71051732    -0.89200
H2108       H  0.30523838  0.24683438  0.70815702     0.18500
H2109       H  0.24850280  0.17575324  0.65280391     0.18500
N2110       N  0.30534533  0.17448029  0.63866007    -0.88200
H2111       H  0.26061719  0.27768500  0.70031789     0.35900
H2112       H  0.25720177  0.25998365  0.73187308     0.41000
H2113       H  0.29814130  0.15240902  0.64007430     0.40600
H2114       H  0.29691913  0.18367092  0.61981915     0.35500
C2115       C  0.38296959  0.19187787  0.75895593    -0.26200
C2116       C  0.37174284  0.21669411  0.77499225    -0.14300
C2117       C  0.35949655  0.23929614  0.75838451     0.36300
C2118       C  0.35320791  0.23536294  0.72980032    -0.25700
C2119       C  0.35840097  0.20916238  0.71420194    -0.14900
C2120       C  0.37743523  0.18827780  0.72886280     0.37400
N2121       N  0.39208749  0.16421072  0.71391762    -0.89200
H2122       H  0.39399860  0.17403251  0.77029058     0.18500
H2123       H  0.34606607  0.25526154  0.71939617     0.18500
N2124       N  0.35264380  0.26726284  0.77017262    -0.88200
H2125       H  0.40405467  0.15085414  0.72805493     0.35900
H2126       H  0.40770125  0.17359737  0.69950420     0.41000
H2127       H  0.36561045  0.28313205  0.75931708     0.40600
H2128       H  0.33022040  0.27061622  0.76757278     0.35500
C2129       C  0.34722439  0.15254777  0.67652857    -0.26200
C2130       C  0.35843847  0.18018795  0.66612696    -0.14300
C2131       C  0.37739143  0.17950111  0.64115807     0.36300
C2132       C  0.38147852  0.15275669  0.62590075    -0.25700
C2133       C  0.36802664  0.12599466  0.63506317    -0.14900
C2134       C  0.35151459  0.12577370  0.66133974     0.37400
N2135       N  0.33766879  0.09891199  0.67182644    -0.89200
H2136       H  0.33342139  0.15232422  0.69604846     0.18500
H2137       H  0.39532726  0.15310131  0.60642351     0.18500
N2138       N  0.39303134  0.20536001  0.63108559    -0.88200
H2139       H  0.32449643  0.10315146  0.69028066     0.35900
H2140       H  0.35459044  0.08450137  0.67824051     0.41000
H2141       H  0.38715943  0.20960632  0.60983321     0.40600
H2142       H  0.41579920  0.20060224  0.63106982     0.35500
C2143       C  0.28990657  0.36803646  0.79936866    -0.26200
C2144       C  0.30640011  0.35260410  0.82004383    -0.14300
C2145       C  0.29003363  0.34587926  0.84631208     0.36300
C2146       C  0.25868020  0.34358579  0.84566136    -0.25700
C2147       C  0.24299919  0.35110656  0.82064717    -0.14900
C2148       C  0.25899377  0.36932626  0.80072804     0.37400
N2149       N  0.24475059  0.39180508  0.78422226    -0.89200
H2150       H  0.30084397  0.37931128  0.78153546     0.18500
H2151       H  0.24699019  0.33296805  0.86363153     0.18500
N2152       N  0.30398828  0.33834052  0.87282416    -0.88200
H2153       H  0.25114369  0.38915163  0.76266701     0.35900
H2154       H  0.25258213  0.41252984  0.79066473     0.41000
H2155       H  0.32691672  0.33916547  0.87050187     0.40600
H2156       H  0.29849025  0.31641476  0.87835769     0.35500
C2157       C  0.34815687  0.40210574  0.81832496    -0.26200
C2158       C  0.35594992  0.37324828  0.82838398    -0.14300
C2159       C  0.37258963  0.37213288  0.85394552     0.36300
C2160       C  0.37744826  0.39844720  0.86968744    -0.25700
C2161       C  0.36651773  0.42644407  0.86085081    -0.14900
C2162       C  0.35261012  0.42806779  0.83405263     0.37400
N2163       N  0.34187285  0.45552746  0.82230114    -0.89200
H2164       H  0.33731123  0.40474045  0.79807948     0.18500
H2165       H  0.38934973  0.39665885  0.88956992     0.18500
N2166       N  0.38416247  0.34470366  0.86484017    -0.88200
H2167       H  0.35964253  0.47027741  0.81978471     0.35900
H2168       H  0.32579959  0.46449293  0.83649791     0.41000
H2169       H  0.37574376  0.34151510  0.88583636     0.40600
H2170       H  0.40720293  0.34690459  0.86606173     0.35500
C2171       C  0.32807178  0.29182185  0.82918305    -0.26200
C2172       C  0.34991892  0.31325622  0.82265850    -0.14300
C2173       C  0.37899858  0.30140408  0.81833612     0.36300
C2174       C  0.38438626  0.27005348  0.81911180    -0.25700
C2175       C  0.36130548  0.24818461  0.82251072    -0.14900
C2176       C  0.33385118  0.26138357  0.83270688     0.37400
N2177       N  0.31238338  0.24606380  0.85016476    -0.89200
H2178       H  0.30498349  0.29743222  0.83071032     0.18500
H2179       H  0.40668749  0.26421522  0.81340131     0.18500
N2180       N  0.40290099  0.32064932  0.80963882    -0.88200
H2181       H  0.31148754  0.25584735  0.87055486     0.35900
H2182       H  0.29151106  0.24874626  0.84143602     0.41000
H2183       H  0.41048430  0.31412822  0.78912005     0.40600
H2184       H  0.42033747  0.31724456  0.82368837     0.35500
C2185       C  0.38210939  0.25416451  0.67724503    -0.26200
C2186       C  0.35747332  0.23903619  0.66675652    -0.14300
C2187       C  0.33889505  0.25679541  0.64964019     0.36300
C2188       C  0.33795488  0.28815721  0.65343607    -0.25700
C2189       C  0.35591439  0.30303091  0.67353047    -0.14900
C2190       C  0.37993672  0.28482704  0.68390518     0.37400
N2191       N  0.40042582  0.29549990  0.70426996    -0.89200
H2192       H  0.39959478  0.24127080  0.68707744     0.18500
H2193       H  0.32216576  0.29975527  0.64100148     0.18500
N2194       N  0.32145310  0.24293247  0.62814356    -0.88200
H2195       H  0.42190588  0.29260823  0.69548176     0.35900
H2196       H  0.39892330  0.28230786  0.72281225     0.41000
H2197       H  0.33607151  0.23164928  0.61407519     0.40600
H2198       H  0.31110392  0.25910749  0.61557143     0.35500
C2199       C  0.36869143  0.35887498  0.73280493    -0.26200
C2200       C  0.35193380  0.33743162  0.71760961    -0.14300
C2201       C  0.33099360  0.32095839  0.73518692     0.36300
C2202       C  0.32786837  0.32657479  0.76469980    -0.25700
C2203       C  0.34642794  0.34535066  0.77992102    -0.14900
C2204       C  0.36835667  0.36077585  0.76324428     0.37400
N2205       N  0.39061001  0.37825894  0.77648265    -0.89200
H2206       H  0.38107101  0.37599054  0.72145163     0.18500
H2207       H  0.31029500  0.31503935  0.77643948     0.18500
N2208       N  0.31017896  0.29998142  0.72419650    -0.88200
H2209       H  0.38914856  0.40004354  0.76855310     0.35900
H2210       H  0.41142730  0.36973224  0.77010633     0.41000
H2211       H  0.30927857  0.29981653  0.70198932     0.40600
H2212       H  0.28885075  0.30615220  0.73144986     0.35500
C2213       C  0.40625801  0.35223442  0.67848005    -0.26200
C2214       C  0.37701636  0.35468399  0.66763846    -0.14300
C2215       C  0.37601428  0.36749324  0.63944301     0.36300
C2216       C  0.40239864  0.37162703  0.62246880    -0.25700
C2217       C  0.43071629  0.36519228  0.63301579    -0.14900
C2218       C  0.43228575  0.35760984  0.66228102     0.37400
N2219       N  0.45994828  0.35517372  0.67667112    -0.89200
H2220       H  0.41029993  0.34541846  0.70010456     0.18500
H2221       H  0.40051736  0.38013022  0.60071049     0.18500
N2222       N  0.34895776  0.37844499  0.62808722    -0.88200
H2223       H  0.47142507  0.37523918  0.67416871     0.35900
H2224       H  0.47249237  0.33774736  0.66766805     0.41000
H2225       H  0.34639384  0.36882187  0.60785791     0.40600
H2226       H  0.35104252  0.40141755  0.62491725     0.35500
C2227       C  0.26931115  0.35526880  0.70526098    -0.26200
C2228       C  0.25201312  0.34906459  0.68140258    -0.14300
C2229       C  0.26810231  0.35126495  0.65428224     0.36300
C2230       C  0.29971406  0.34792828  0.65315831    -0.25700
C2231       C  0.31692384  0.35044080  0.67823349    -0.14900
C2232       C  0.29950998  0.36314106  0.70143710     0.37400
N2233       N  0.31220374  0.38433891  0.72047692    -0.89200
H2234       H  0.25895375  0.35805224  0.72622174     0.18500
H2235       H  0.30982430  0.34346422  0.63237882     0.18500
N2236       N  0.25263947  0.35527477  0.62792762    -0.88200
H2237       H  0.29575485  0.39324499  0.73424840     0.35900
H2238       H  0.31998234  0.40212422  0.70781458     0.41000
H2239       H  0.25911251  0.33850693  0.61350112     0.40600
H2240       H  0.25958914  0.37546688  0.61876411     0.35500
loop_ 
_geom_bond_atom_site_label_1 
_geom_bond_atom_site_label_2 
_geom_bond_distance 
_geom_bond_site_symmetry_2 
_ccdc_geom_bond_type 
C1         C1069   1.613       .  S
C1         C1080   1.598       .  S
C1         C1094   1.597       .  S
C1         C1111   1.626       .  S
C2         C1024   1.592       .  S
C2         C1038   1.571       .  S
C2         C1052   1.589       .  S
C2         C1083   1.588       .  S
C3          C982   1.614       .  S
C3          C999   1.618       .  S
C3         C1010   1.557       .  S
C3         C1066   1.585       .  S
C4          C954   1.579       .  S
C4          C968   1.611       .  S
C4          C996   1.588       .  S
C4         C1055   1.646       .  S
C5          C912   1.594       .  S
C5          C926   1.572       .  S
C5          C943   1.569       .  S
C5          C985   1.571       .  S
C6          C884   1.598       .  S
C6          C898   1.600       .  S
C6          C929   1.614       .  S
C6          C971   1.628       .  S
C7          C856   1.609       .  S
C7          C873   1.581       .  S
C7          C915   1.613       .  S
C7         C1108   1.596       .  S
C8          C842   1.569       .  S
C8          C859   1.597       .  S
C8          C901   1.604       .  S
C8         C1027   1.573       .  S
C9          C786   1.638       .  S
C9          C803   1.594       .  S
C9          C817   1.587       .  S
C9          C828   1.618       .  S
C10         C744   1.607       .  S
C10         C758   1.573       .  S
C10         C772   1.625       .  S
C10         C800   1.608       .  S
C11         C702   1.615       .  S
C11         C716   1.573       .  S
C11         C730   1.610       .  S
C11         C831   1.596       .  S
C12         C674   1.598       .  S
C12         C691   1.560       .  S
C12         C705   1.591       .  S
C12         C747   1.604       .  S
C13         C632   1.601       .  S
C13         C646   1.577       .  S
C13         C660   1.570       .  S
C13         C733   1.615       .  S
C14         C604   1.624       .  S
C14         C618   1.562       .  S
C14         C635   1.599       .  S
C14         C677   1.601       .  S
C15         C576   1.598       .  S
C15         C590   1.561       .  S
C15         C663   1.576       .  S
C15         C789   1.629       .  S
C16         C562   1.561       .  S
C16         C579   1.598       .  S
C16         C607   1.599       .  S
C16         C775   1.612       .  S
O17          C20   1.262       .  A
O17         Cd22   2.488       .  S
C18          O27   1.262       .  A
C18          O23   1.270       .  A
C18         C761   1.491       .  S
O19          C25   1.263       .  A
O19         Cd22   2.436       .  S
C20          O28   1.264       .  A
C20         C520   1.493       .  S
C21          O26   1.264       .  A
C21          O24   1.264       .  A
C21         C551   1.471       .  S
Cd22         O29   2.513       .  S
Cd22         O28   2.505       .  S
Cd22         O27   2.506       .  S
Cd22         O23   2.474       .  S
Cd22         O26   2.437       .  S
Cd22         O24   2.426       .  S
C25          O29   1.273       .  A
C25         C534   1.493       .  S
O30          C33   1.271       .  A
O30         Cd35   2.507       .  S
C31          O40   1.262       .  A
C31          O36   1.267       .  A
C31         C492   1.492       .  S
O32          C38   1.263   1_455  A
O32         Cd35   2.424   1_455  S
C33          O41   1.263       .  A
C33         C814   1.504       .  S
C34          O39   1.262   1_455  A
C34          O37   1.271       .  A
C34         C506   1.492       .  S
Cd35         O42   2.407       .  S
Cd35         O41   2.506       .  S
Cd35         O40   2.459   1_655  S
Cd35         O36   2.526   1_655  S
Cd35         O39   2.462       .  S
Cd35         O37   2.511   1_655  S
C38          O42   1.266       .  A
C38         C548   1.468       .  S
O43          C46   1.264   1_545  A
O43         Cd48   2.417       .  S
C44          O53   1.271       .  A
C44          O49   1.261       .  A
C44         C464   1.492       .  S
O45          C51   1.272       .  A
O45         Cd48   2.507   1_565  S
C46          O54   1.266       .  A
C46         C478   1.467       .  S
C47          O52   1.264       .  A
C47          O50   1.265       .  A
C47         C450   1.501       .  S
Cd48         O55   2.457   1_545  S
Cd48         O54   2.428   1_545  S
Cd48         O53   2.523       .  S
Cd48         O49   2.446       .  S
Cd48         O52   2.492       .  S
Cd48         O50   2.521       .  S
C51          O55   1.261       .  A
C51         C593   1.496       .  S
O56          C59   1.264       .  A
O56         Cd61   2.481       .  S
C57          O66   1.263       .  A
C57          O62   1.270       .  A
C57         C565   1.497       .  S
O58          C64   1.263       .  A
O58         Cd61   2.447       .  S
C59          O67   1.267       .  A
C59         C439   1.500       .  S
C60          O65   1.263   1_655  A
C60          O63   1.265       .  A
C60         C481   1.470       .  S
Cd61         O68   2.511       .  S
Cd61         O67   2.528       .  S
Cd61         O66   2.496   1_455  S
Cd61         O62   2.507   1_455  S
Cd61         O65   2.391       .  S
Cd61         O63   2.447   1_455  S
C64          O68   1.272       .  A
C64         C509   1.492       .  S
O69          C72   1.270       .  A
O69         Cd74   2.512       .  S
C70          O79   1.266       .  A
C70          O75   1.262       .  A
C70         C394   1.493       .  S
O71          C77   1.264       .  A
O71         Cd74   2.420       .  S
C72          O80   1.262       .  A
C72         C688   1.493       .  S
C73          O78   1.261       .  A
C73          O76   1.272       .  A
C73         C408   1.494       .  S
Cd74         O81   2.438       .  S
Cd74         O80   2.458       .  S
Cd74         O79   2.507       .  S
Cd74         O75   2.468       .  S
Cd74         O78   2.443       .  S
Cd74         O76   2.525       .  S
C77          O81   1.266       .  A
C77         C422   1.469       .  S
O82          C85   1.273       .  A
O82         Cd87   2.522       .  S
C83          O92   1.263       .  A
C83          O88   1.263       .  A
C83         C380   1.500       .  S
O84          C90   1.265       .  A
O84         Cd87   2.438       .  S
C85          O93   1.261       .  A
C85         C719   1.498       .  S
C86          O91   1.261       .  A
C86          O89   1.272       .  A
C86         C537   1.500       .  S
Cd87         O94   2.440       .  S
Cd87         O93   2.469       .  S
Cd87         O92   2.509       .  S
Cd87         O88   2.526       .  S
Cd87         O91   2.436       .  S
Cd87         O89   2.554       .  S
C90          O94   1.262       .  A
C90         C425   1.476       .  S
O95          C98   1.267       .  A
O95        Cd100   2.512       .  S
C96         O105   1.262       .  A
C96         O101   1.270       .  A
C96         C649   1.492       .  S
O97         C103   1.263       .  A
O97        Cd100   2.452       .  S
C98         O106   1.261       .  A
C98         C352   1.491       .  S
C99         O104   1.263       .  A
C99         O102   1.263       .  A
C99         C366   1.471       .  S
Cd100       O107   2.522       .  S
Cd100       O106   2.468       .  S
Cd100       O105   2.488       .  S
Cd100       O101   2.518       .  S
Cd100       O104   2.433       .  S
Cd100       O102   2.417       .  S
C103        O107   1.273       .  A
C103        C411   1.498       .  S
O108        C111   1.270       .  A
O108       Cd113   2.496   1_565  S
C109        O118   1.264       .  A
C109        O114   1.264       .  A
C109        C338   1.496       .  S
O110        C116   1.262   1_545  A
O110       Cd113   2.451       .  S
C111        O119   1.264       .  A
C111        C621   1.495       .  S
C112        O117   1.263       .  A
C112        O115   1.271       .  A
C112        C467   1.491       .  S
Cd113       O120   2.446   1_545  S
Cd113       O119   2.495   1_545  S
Cd113       O118   2.501       .  S
Cd113       O114   2.494       .  S
Cd113       O117   2.442       .  S
Cd113       O115   2.504       .  S
C116        O120   1.262       .  A
C116        C369   1.475       .  S
O121        C124   1.267       .  A
O121       Cd126   2.530       .  S
C122        O131   1.264       .  A
C122        O127   1.268       .  A
C122       C1097   1.504       .  S
O123        C129   1.263       .  A
O123       Cd126   2.421       .  S
C124        O132   1.262       .  A
C124        C383   1.496       .  S
C125        O130   1.271       .  A
C125        O128   1.264       .  A
C125        C313   1.498       .  S
Cd126       O133   2.429       .  S
Cd126       O132   2.471       .  S
Cd126       O131   2.510       .  S
Cd126       O127   2.494       .  S
Cd126       O130   2.516       .  S
Cd126       O128   2.471       .  S
C129        O133   1.265       .  A
C129        C324   1.472       .  S
O134        C137   1.263       .  A
O134       Cd139   2.458       .  S
C135        O144   1.263       .  A
C135        O140   1.271       .  A
C135       C1041   1.502       .  S
O136        C142   1.262       .  A
O136       Cd139   2.423       .  S
C137        O145   1.265       .  A
C137        C397   1.493       .  S
C138        O143   1.260       .  A
C138        O141   1.273       .  A
C138        C296   1.492       .  S
Cd139       O146   2.411       .  S
Cd139       O145   2.525       .  S
Cd139       O144   2.473       .  S
Cd139       O140   2.511       .  S
Cd139       O143   2.417       .  S
Cd139       O141   2.526       .  S
C142        O146   1.263       .  A
C142        C327   1.468       .  S
O147        C150   1.269       .  A
O147       Cd152   2.498       .  S
C148        O157   1.262       .  A
C148        O153   1.263       .  A
C148        C341   1.496       .  S
O149        C155   1.270       .  A
O149       Cd152   2.540       .  S
C150        O158   1.265       .  A
C150        C957   1.504       .  S
C151        O156   1.265       .  A
C151        O154   1.263       .  A
C151        C285   1.481       .  S
Cd152       O159   2.474       .  S
Cd152       O158   2.518       .  S
Cd152       O157   2.497       .  S
Cd152       O153   2.515       .  S
Cd152       O156   2.458       .  S
Cd152       O154   2.450       .  S
C155        O159   1.263       .  A
C155        C310   1.499       .  S
O160        C163   1.263   1_545  A
O160       Cd165   2.458       .  S
C161        O170   1.261       .  A
C161        O166   1.270       .  A
C161       C1013   1.496       .  S
O162        C168   1.265       .  A
O162       Cd165   2.462       .  S
C163        O171   1.267       .  A
C163        C355   1.487       .  S
C164        O169   1.261       .  A
C164        O167   1.270       .  A
C164        C268   1.501       .  S
Cd165       O172   2.399       .  S
Cd165       O171   2.486   1_545  S
Cd165       O170   2.436       .  S
Cd165       O166   2.556       .  S
Cd165       O169   2.458       .  S
Cd165       O167   2.546       .  S
C168        O172   1.266       .  A
C168        C282   1.471       .  S
O173        C176   1.266       .  A
O173       Cd178   2.527       .  S
C174        O183   1.263       .  A
C174        O179   1.271       .  A
C174        C940   1.502       .  S
O175        C181   1.264       .  A
O175       Cd178   2.448       .  S
C176        O184   1.263       .  A
C176        C453   1.495   1_455  S
C177        O182   1.260       .  A
C177        O180   1.272       .  A
C177        C243   1.494       .  S
Cd178       O185   2.437       .  S
Cd178       O184   2.478       .  S
Cd178       O183   2.517       .  S
Cd178       O179   2.503       .  S
Cd178       O182   2.434       .  S
Cd178       O180   2.529       .  S
C181        O185   1.265       .  A
C181        C257   1.477       .  S
O186        C189   1.264   1_545  A
O186       Cd191   2.474       .  S
C187        O196   1.263       .  A
C187        O192   1.270       .  A
C187        C887   1.494       .  S
O188        C194   1.262       .  A
O188       Cd191   2.398       .  S
C189        O197   1.267       .  A
C189        C436   1.499       .  S
C190        O195   1.262       .  A
C190        O193   1.273       .  A
C190        C271   1.492       .  S
Cd191       O198   2.449       .  S
Cd191       O197   2.532   1_545  S
Cd191       O196   2.474       .  S
Cd191       O192   2.522       .  S
Cd191       O195   2.438       .  S
Cd191       O193   2.524       .  S
C194        O198   1.265       .  A
C194        C254   1.469       .  S
O199        C202   1.263       .  A
O199       Cd204   2.519       .  S
C200        O209   1.263       .  A
C200        O205   1.272       .  A
C200        C870   1.498       .  S
O201        C207   1.262       .  A
O201       Cd204   2.408       .  S
C202        O210   1.263       .  A
C202        C495   1.498       .  S
C203        O208   1.262       .  A
C203        O206   1.272       .  A
C203        C299   1.491       .  S
Cd204       O211   2.437       .  S
Cd204       O210   2.477       .  S
Cd204       O209   2.491       .  S
Cd204       O205   2.498       .  S
Cd204       O208   2.440       .  S
Cd204       O206   2.531       .  S
C207        O211   1.265       .  A
C207        C226   1.467       .  S
O212        C215   1.264       .  A
O212       Cd217   2.529   1_655  S
C213        O222   1.262       .  A
C213        O218   1.271       .  A
C213        C845   1.504       .  S
O214        C220   1.266       .  A
O214       Cd217   2.422       .  S
C215        O223   1.262   1_655  A
C215        C523   1.495       .  S
C216        O221   1.258       .  A
C216        O219   1.272       .  A
C216        C240   1.495       .  S
Cd217       O224   2.457       .  S
Cd217       O223   2.461       .  S
Cd217       O222   2.496       .  S
Cd217       O218   2.523       .  S
Cd217       O221   2.426       .  S
Cd217       O219   2.527       .  S
C220        O224   1.263       .  A
C220        C229   1.476       .  S
C225        C230   1.404       .  A
C225       C1346   1.402       .  A
C225        H232   1.084       .  S
C226        C227   1.412   1_554  A
C226       C1345   1.401       .  A
C227        C228   1.399       .  A
C227        N234   1.439       .  S
C228       C1349   1.404       .  A
C228        H233   1.084       .  S
C229        C230   1.417       .  A
C229       C1348   1.402       .  A
C230        N231   1.438       .  S
N231        H235   1.045       .  S
N231        H236   1.046       .  S
N234        H237   1.045       .  S
N234        H238   1.046       .  S
C239        C240   1.403       .  A
C239        C244   1.403       .  A
C239        H246   1.084       .  S
C240       C1361   1.425       .  A
C241        C242   1.404       .  A
C241       C1360   1.423   1_554  A
C241        N248   1.433       .  S
C242        C243   1.404       .  A
C242        H247   1.084       .  S
C243       C1364   1.423   1_554  A
C244       C1363   1.422       .  A
C244        N245   1.432       .  S
N245        H249   1.046       .  S
N245        H250   1.044       .  S
N248        H252   1.045       .  S
N248       H1371   1.045       .  S
H251       N1368   1.045       .  S
C253        C258   1.396       .  A
C253       C1374   1.402   1_554  A
C253        H260   1.084       .  S
C254        C255   1.408       .  A
C254       C1373   1.404       .  A
C255        C256   1.396       .  A
C255        N262   1.432       .  S
C256       C1377   1.402       .  A
C256        H261   1.084       .  S
C257        C258   1.410       .  A
C257       C1376   1.406   1_554  A
C258        N259   1.432       .  S
N259        H263   1.046       .  S
N259        H264   1.046       .  S
N262        H265   1.046       .  S
N262        H266   1.046       .  S
C267        C272   1.411       .  A
C267       C1388   1.411       .  A
C267        H274   1.083       .  S
C268        C269   1.414       .  A
C268       C1387   1.409   1_554  A
C269        C270   1.415       .  A
C269        N276   1.437       .  S
C270       C1391   1.411   1_554  A
C270        H275   1.083       .  S
C271        C272   1.410       .  A
C271       C1390   1.409       .  A
C272        N273   1.437       .  S
N273        H277   1.046       .  S
N273        H278   1.046       .  S
N276        H279   1.046       .  S
N276        H280   1.046       .  S
C281        C282   1.402   1_556  A
C281        C286   1.394       .  A
C281        H288   1.084   1_556  S
C282       C1403   1.412       .  A
C283        C284   1.400       .  A
C283       C1402   1.409       .  A
C283        N290   1.433       .  S
C284        C285   1.405       .  A
C284        H289   1.084       .  S
C285       C1406   1.413       .  A
C286       C1405   1.409       .  A
C286        N287   1.439       .  S
N287        H291   1.046       .  S
N287        H292   1.046       .  S
N290        H293   1.046       .  S
N290        H294   1.046       .  S
C295        C296   1.402       .  A
C295        C300   1.409       .  A
C295        H302   1.083       .  S
C296       C1417   1.424       .  A
C297        C298   1.405       .  A
C297       C1416   1.425   1_554  A
C297        N304   1.433       .  S
C298        C299   1.402       .  A
C298        H303   1.084       .  S
C299       C1420   1.415   1_554  A
C300       C1419   1.418       .  A
C300        N301   1.438       .  S
N301        H305   1.046       .  S
N301        H306   1.046       .  S
N304        H307   1.045       .  S
N304        H308   1.045       .  S
C309        C310   1.409       .  A
C309        C314   1.409       .  A
C309        H316   1.084       .  S
C310       C1431   1.411       .  A
C311        C312   1.411       .  A
C311       C1430   1.414       .  A
C311        N318   1.438       .  S
C312        C313   1.409   1_556  A
C312        H317   1.083       .  S
C313       C1434   1.411       .  A
C314       C1433   1.411       .  A
C314        N315   1.432       .  S
N315        H319   1.046       .  S
N315        H320   1.046       .  S
N318        H321   1.045       .  S
N318        H322   1.046       .  S
C323        C324   1.403       .  A
C323        C328   1.400       .  A
C323        H330   1.084       .  S
C324       C1445   1.410   1_554  A
C325        C326   1.395       .  A
C325       C1444   1.408       .  A
C325        N332   1.433       .  S
C326        C327   1.403       .  A
C326        H331   1.084       .  S
C327       C1448   1.410       .  A
C328       C1447   1.413   1_554  A
C328        N329   1.438       .  S
N329        H333   1.046       .  S
N329        H334   1.046       .  S
N332        H335   1.046       .  S
N332        H336   1.046       .  S
C337        C338   1.406       .  A
C337        C342   1.407       .  A
C337        H344   1.084       .  S
C338        C339   1.416       .  A
C339        C340   1.412       .  A
C339        N346   1.437       .  S
C340        C341   1.407       .  A
C340        H345   1.083       .  S
C341        C342   1.413       .  A
C342        N343   1.432       .  S
N343        H347   1.046       .  S
N343        H348   1.046       .  S
N346        H349   1.046       .  S
N346        H350   1.046       .  S
C351        C352   1.405       .  A
C351        C356   1.401       .  A
C351        H358   1.084       .  S
C352        C353   1.416       .  A
C353        C354   1.408       .  A
C353        N360   1.438       .  S
C354        C355   1.405       .  A
C354        H359   1.084       .  S
C355        C356   1.416       .  A
C356        N357   1.432       .  S
N357        H361   1.046       .  S
N357        H362   1.045       .  S
N360        H363   1.045       .  S
N360        H364   1.046       .  S
C365        C370   1.399       .  A
C365       C1486   1.402       .  A
C365        H372   1.084       .  S
C366        C367   1.412       .  A
C366       C1485   1.404   1_554  A
C367        C368   1.398       .  A
C367        N374   1.438       .  S
C368       C1489   1.402   1_554  A
C368        H373   1.083   1_565  S
C369        C370   1.410       .  A
C369       C1488   1.404       .  A
C370        N371   1.432       .  S
N371        H375   1.046       .  S
N371        H376   1.046       .  S
N374        H377   1.046       .  S
N374        H378   1.046       .  S
C379        C380   1.407       .  A
C379        C384   1.411       .  A
C379        H386   1.083       .  S
C380        C381   1.415       .  A
C381        C382   1.410       .  A
C381        N388   1.432       .  S
C382        C383   1.406       .  A
C382        H387   1.084       .  S
C383        C384   1.416       .  A
C384        N385   1.438       .  S
N385        H389   1.046       .  S
N385        H390   1.046       .  S
N388        H391   1.046       .  S
N388        H392   1.046       .  S
C393        C394   1.408       .  A
C393        C398   1.409       .  A
C393        H400   1.084       .  S
C394        C395   1.416       .  A
C395        C396   1.406       .  A
C395        N402   1.438       .  S
C396        C397   1.406       .  A
C396        H401   1.083       .  S
C397        C398   1.412       .  A
C398        N399   1.432       .  S
N399        H404   1.046       .  S
N399       H1523   1.046       .  S
N402        H405   1.046       .  S
N402        H406   1.046       .  S
H403       N1519   1.046       .  S
C407        C412   1.412       .  A
C407       C1528   1.409   1_554  A
C407       H1534   1.083       .  S
C408        C409   1.408       .  A
C408       C1527   1.410       .  A
C409       C1530   1.406       .  A
C409        N416   1.432       .  S
C410        C411   1.410   1_556  A
C410       C1529   1.406       .  A
C410        H415   1.083       .  S
C411        C412   1.414       .  A
C412        N413   1.437       .  S
N413        H417   1.046       .  S
N413        H418   1.046       .  S
H414       C1527   1.083       .  S
N416        H419   1.046       .  S
N416        H420   1.046       .  S
C421        C426   1.392       .  A
C421       C1542   1.400   1_554  A
C421        H428   1.084       .  S
C422        C423   1.409       .  A
C422       C1541   1.403       .  A
C423        C424   1.399       .  A
C423        N430   1.438       .  S
C424       C1545   1.403       .  A
C424        H429   1.084       .  S
C425        C426   1.419       .  A
C425       C1544   1.406   1_554  A
C426        N427   1.432       .  S
N427        H431   1.045       .  S
N427        H432   1.045       .  S
N430        H433   1.046       .  S
N430        H434   1.046       .  S
C435        C436   1.406       .  A
C435        C440   1.407       .  A
C435        H442   1.084       .  S
C436        C437   1.415       .  A
C437        C438   1.413       .  A
C437        N444   1.432       .  S
C438        C439   1.409       .  A
C438        H443   1.084       .  S
C439        C440   1.413       .  A
C440        N441   1.432       .  S
N441        H445   1.046       .  S
N441        H446   1.046       .  S
N444        H447   1.046       .  S
N444        H448   1.046       .  S
C449        C450   1.408       .  A
C449        C454   1.410       .  A
C449        H456   1.083       .  S
C450        C451   1.421       .  A
C451        C452   1.406       .  A
C451        N458   1.432       .  S
C452        C453   1.406       .  A
C452        H457   1.084       .  S
C453        C454   1.414       .  A
C454        N455   1.438   1_655  S
N455        H459   1.046       .  S
N455        H460   1.046       .  S
N458        H461   1.045       .  S
N458        H462   1.045       .  S
C463        C468   1.407       .  A
C463       C1584   1.409       .  A
C463        H470   1.083       .  S
C464        C465   1.410       .  A
C464       C1583   1.409   1_554  A
C465        C466   1.409       .  A
C465        N472   1.438       .  S
C466       C1587   1.411   1_554  A
C466        H471   1.083       .  S
C467        C468   1.411       .  A
C467       C1586   1.409       .  A
C468        N469   1.438       .  S
N469        H473   1.046       .  S
N469        H474   1.045       .  S
N472        H475   1.046   1_545  S
N472        H476   1.046       .  S
C477        C482   1.398       .  A
C477       C1598   1.404       .  A
C477        H484   1.084   1_565  S
C478        C479   1.409       .  A
C478       C1597   1.402   1_554  A
C479        C480   1.400       .  A
C479        N486   1.438       .  S
C480       C1601   1.405   1_554  A
C480        H485   1.083   1_655  S
C481        C482   1.409       .  A
C481       C1600   1.404       .  A
C482        N483   1.433       .  S
N483        H487   1.046   1_565  S
N483        H488   1.046       .  S
N486        H489   1.046       .  S
N486        H490   1.046       .  S
C491        C492   1.406       .  A
C491        C496   1.407       .  A
C491        H498   1.084       .  S
C492        C493   1.413       .  A
C493        C494   1.407       .  A
C493        N500   1.438       .  S
C494        C495   1.407       .  A
C494        H499   1.083       .  S
C495        C496   1.422       .  A
C496        N497   1.432       .  S
N497        H501   1.045       .  S
N497        H502   1.045       .  S
N500        H503   1.046       .  S
N500        H504   1.046       .  S
C505        C506   1.410   1_556  A
C505       C1630   1.412       .  A
C505       H1632   1.084       .  S
C506        C507   1.410       .  A
C507        C508   1.406       .  A
C507        N514   1.437   1_455  S
C508       C1629   1.409   1_554  A
C508        H513   1.083       .  S
C509        C510   1.411       .  A
C509       C1628   1.410       .  A
C510       C1625   1.407       .  A
C510        N511   1.437       .  S
N511        H515   1.046   1_455  S
N511        H516   1.045       .  S
H512       C1625   1.084       .  S
N514        H517   1.046       .  S
N514        H518   1.046       .  S
C519        C520   1.407       .  A
C519        C524   1.406       .  A
C519        H526   1.084       .  S
C520        C521   1.412       .  A
C521        C522   1.404       .  A
C521        N528   1.432       .  S
C522        C523   1.406       .  A
C522        H527   1.084       .  S
C523        C524   1.420       .  A
C524        N525   1.432       .  S
N525        H529   1.045       .  S
N525        H530   1.045       .  S
N528        H531   1.046       .  S
N528        H532   1.046       .  S
C533        C534   1.402       .  A
C533        C538   1.401       .  A
C533        H540   1.084       .  S
C534       C1655   1.419       .  A
C535        C536   1.414       .  A
C535       C1654   1.419   1_554  A
C535        N542   1.438       .  S
C536        C537   1.406       .  A
C536        H541   1.083       .  S
C537       C1658   1.424   1_554  A
C538       C1657   1.424       .  A
C538        N539   1.433       .  S
N539        H543   1.045       .  S
N539        H544   1.045       .  S
N542        H545   1.046       .  S
N542        H546   1.046       .  S
C547        C548   1.401       .  A
C547        C552   1.398       .  A
C547        H554   1.084       .  S
C548       C1669   1.409   1_554  A
C549        C550   1.396       .  A
C549       C1668   1.409       .  A
C549        N556   1.433       .  S
C550        C551   1.403       .  A
C550        H555   1.084       .  S
C551       C1672   1.411       .  A
C552       C1671   1.414   1_554  A
C552        N553   1.438       .  S
N553        H557   1.046       .  S
N553        H558   1.045       .  S
N556        H559   1.046       .  S
N556        H560   1.046   1_655  S
C561        C562   1.422       .  A
C561        C566   1.397       .  A
C561        H568   1.080       .  S
C562        C563   1.421       .  A
C563        C564   1.417       .  A
C563        N570   1.430       .  S
C564        C565   1.410       .  A
C564        H569   1.083       .  S
C565        C566   1.402       .  A
C566        N567   1.433       .  S
N567        H571   1.046       .  S
N567        H572   1.046       .  S
N570        H573   1.046       .  S
N570        H574   1.046       .  S
C575        C576   1.426       .  A
C575        C580   1.431       .  A
C575        H582   1.077       .  S
C576        C577   1.398       .  A
C577        C578   1.382       .  A
C577        N584   1.409       .  S
C578        C579   1.378       .  A
C578        H583   1.044       .  S
C579        C580   1.445       .  A
C580        N581   1.432       .  S
N581        H585   1.041       .  S
N581        H586   1.040       .  S
N584        H587   1.025       .  S
N584        H588   1.033       .  S
C589        C590   1.410       .  A
C589        C594   1.413       .  A
C589        H596   1.079       .  S
C590        C591   1.446       .  A
C591        C592   1.398       .  A
C591        N598   1.444       .  S
C592        C593   1.394       .  A
C592        H597   1.084       .  S
C593        C594   1.418       .  A
C594        N595   1.438       .  S
N595        H599   1.046       .  S
N595        H600   1.046       .  S
N598        H601   1.037       .  S
N598        H602   1.046       .  S
C603        C604   1.394       .  A
C603        C608   1.394       .  A
C603        H610   1.073       .  S
C604        C605   1.444       .  A
C605        C606   1.443       .  A
C605        N612   1.429       .  S
C606        C607   1.419       .  A
C606        H611   1.080       .  S
C607        C608   1.424       .  A
C608        N609   1.419       .  S
N609        H613   1.038       .  S
N609        H614   1.006       .  S
N612        H615   1.046       .  S
N612        H616   1.045       .  S
C617        C618   1.416       .  A
C617        C622   1.417       .  A
C617        H624   1.083       .  S
C618        C619   1.426       .  A
C619        C620   1.405       .  A
C619        N626   1.430       .  S
C620        C621   1.399       .  A
C620        H625   1.084       .  S
C621        C622   1.415       .  A
C622        N623   1.437       .  S
N623        H627   1.046       .  S
N623        H628   1.045       .  S
N626        H629   1.046       .  S
N626        H630   1.045       .  S
C631        C632   1.434       .  A
C631        C636   1.412       .  A
C631        H638   1.084       .  S
C632        C633   1.407       .  A
C633        C634   1.417       .  A
C633        N640   1.425       .  S
C634        C635   1.433       .  A
C634        H639   1.067       .  S
C635        C636   1.417       .  A
C636        N637   1.433       .  S
N637        H641   1.045       .  S
N637        H642   1.046       .  S
N640        H643   1.045       .  S
N640        H644   1.040       .  S
C645        C646   1.419       .  A
C645        C650   1.405       .  A
C645        H652   1.081       .  S
C646        C647   1.434       .  A
C647        C648   1.408       .  A
C647        N654   1.431       .  S
C648        C649   1.398       .  A
C648        H653   1.084       .  S
C649        C650   1.413       .  A
C650        N651   1.432       .  S
N651        H655   1.045       .  S
N651        H656   1.046       .  S
N654        H657   1.046       .  S
N654        H658   1.046       .  S
C659        C660   1.411       .  A
C659        C664   1.422       .  A
C659        H666   1.080       .  S
C660        C661   1.431       .  A
C661        C662   1.376       .  A
C661        N668   1.439       .  S
C662        C663   1.391       .  A
C662        H667   1.070       .  S
C663        C664   1.440       .  A
C664        N665   1.436       .  S
N665        H669   1.045       .  S
N665        H670   1.045       .  S
N668        H671   1.039       .  S
N668        H672   1.032       .  S
C673        C674   1.449       .  A
C673        C678   1.443       .  A
C673        H680   1.075       .  S
C674        C675   1.415       .  A
C675        C676   1.388       .  A
C675        N682   1.441       .  S
C676        C677   1.380       .  A
C676        H681   1.059       .  S
C677        C678   1.424       .  A
C678        N679   1.437       .  S
N679        H683   1.045       .  S
N679        H684   1.044       .  S
N682        H685   1.034       .  S
N682        H686   1.035       .  S
C687        C688   1.399       .  A
C687        C692   1.403       .  A
C687        H694   1.084       .  S
C688        C689   1.414       .  A
C689        C690   1.406       .  A
C689        N696   1.432       .  S
C690        C691   1.411       .  A
C690        H695   1.081       .  S
C691        C692   1.427       .  A
C692        N693   1.432       .  S
N693        H697   1.046       .  S
N693        H698   1.045       .  S
N696        H699   1.046       .  S
N696        H700   1.046       .  S
C701        C702   1.422       .  A
C701        C706   1.429       .  A
C701        H708   1.074       .  S
C702        C703   1.418       .  A
C703        C704   1.389       .  A
C703        N710   1.442       .  S
C704        C705   1.413       .  A
C704        H709   1.073       .  S
C705        C706   1.451       .  A
C706        N707   1.440       .  S
N707        H711   1.046       .  S
N707        H712   1.037       .  S
N710        H713   1.047       .  S
N710        H714   1.041       .  S
C715        C716   1.425       .  A
C715        C720   1.400       .  A
C715        H722   1.081       .  S
C716        C717   1.422       .  A
C717        C718   1.416       .  A
C717        N724   1.428       .  S
C718        C719   1.410       .  A
C718        H723   1.084       .  S
C719        C720   1.401       .  A
C720        N721   1.433       .  S
N721        H725   1.046       .  S
N721        H726   1.046       .  S
N724        H727   1.046       .  S
N724        H728   1.046       .  S
C729        C730   1.417       .  A
C729        C734   1.432       .  A
C729        H736   1.079       .  S
C730        C731   1.412       .  A
C731        C732   1.394       .  A
C731        N738   1.431       .  S
C732        C733   1.429       .  A
C732        H737   1.077       .  S
C733        C734   1.441       .  A
C734        N735   1.436       .  S
N735        H739   1.046       .  S
N735        H740   1.035       .  S
N738        H741   1.045       .  S
N738        H742   1.046       .  S
C743        C744   1.419       .  A
C743        C748   1.411       .  A
C743        H750   1.048       .  S
C744        C745   1.435       .  A
C745        C746   1.410       .  A
C745        N752   1.440       .  S
C746        C747   1.418       .  A
C746        H751   1.062       .  S
C747        C748   1.427       .  A
C748        N749   1.440       .  S
N749        H753   1.044       .  S
N749        H754   1.039       .  S
N752        H755   1.032       .  S
N752        H756   1.039       .  S
C757        C758   1.415       .  A
C757        C762   1.421       .  A
C757        H764   1.081       .  S
C758        C759   1.435       .  A
C759        C760   1.396       .  A
C759        N766   1.432       .  S
C760        C761   1.392       .  A
C760        H765   1.085       .  S
C761        C762   1.416       .  A
C762        N763   1.437       .  S
N763        H767   1.045       .  S
N763        H768   1.046       .  S
N766        H769   1.046       .  S
N766        H770   1.046       .  S
C771        C772   1.422       .  A
C771        C776   1.426       .  A
C771        H778   1.079       .  S
C772        C773   1.427       .  A
C773        C774   1.428       .  A
C773        N780   1.439       .  S
C774        C775   1.423       .  A
C774        H779   1.078       .  S
C775        C776   1.423       .  A
C776        N777   1.432       .  S
N777        H781   1.042       .  S
N777        H782   1.045       .  S
N780        H783   1.043       .  S
N780        H784   1.045       .  S
C785        C786   1.436       .  A
C785        C790   1.441       .  A
C785        H792   1.070       .  S
C786        C787   1.438       .  A
C787        C788   1.415       .  A
C787        N794   1.429       .  S
C788        C789   1.422       .  A
C788        H793   1.075       .  S
C789        C790   1.425       .  A
C790        N791   1.431       .  S
N791        H795   1.045       .  S
N791        H796   1.046       .  S
N794        H797   1.042       .  S
N794        H798   1.027       .  S
C799        C800   1.399       .  A
C799        C804   1.391       .  A
C799        H806   1.058       .  S
C800        C801   1.451       .  A
C801        C802   1.454       .  A
C801        N808   1.428       .  S
C802        C803   1.435       .  A
C802        H807   1.083       .  S
C803        C804   1.379       .  A
C804        N805   1.430       .  S
N805        H809   1.037       .  S
N805        H810   1.045       .  S
N808        H811   1.045       .  S
N808        H812   1.046       .  S
C813        C814   1.393       .  A
C813        C818   1.402       .  A
C813        H820   1.084       .  S
C814        C815   1.420       .  A
C815        C816   1.413       .  A
C815        N822   1.432       .  S
C816        C817   1.416       .  A
C816        H821   1.073       .  S
C817        C818   1.438       .  A
C818        N819   1.429       .  S
N819        H823   1.046       .  S
N819        H824   1.046       .  S
N822        H825   1.045       .  S
N822        H826   1.045       .  S
C827        C828   1.424       .  A
C827        C832   1.433       .  A
C827        H834   1.080       .  S
C828        C829   1.431       .  A
C829        C830   1.402       .  A
C829        N836   1.413       .  S
C830        C831   1.399       .  A
C830        H835   1.073       .  S
C831        C832   1.442       .  A
C832        N833   1.443       .  S
N833        H837   1.046       .  S
N833        H838   1.039       .  S
N836        H839   1.041       .  S
N836        H840   1.046       .  S
C841        C842   1.417       .  A
C841        C846   1.410       .  A
C841        H848   1.080       .  S
C842        C843   1.424       .  A
C843        C844   1.406       .  A
C843        N850   1.427       .  S
C844        C845   1.400       .  A
C844        H849   1.084       .  S
C845        C846   1.422       .  A
C846        N847   1.432       .  S
N847        H851   1.045       .  S
N847        H852   1.045       .  S
N850        H853   1.045       .  S
N850        H854   1.045       .  S
C855        C856   1.421       .  A
C855        C860   1.437       .  A
C855        H862   1.079       .  S
C856        C857   1.415       .  A
C857        C858   1.384       .  A
C857        N864   1.444       .  S
C858        C859   1.416       .  A
C858        H863   1.070       .  S
C859        C860   1.444       .  A
C860        N861   1.433       .  S
N861        H865   1.045       .  S
N861        H866   1.045       .  S
N864        H867   1.046       .  S
N864        H868   1.044       .  S
C869        C870   1.392       .  A
C869        C874   1.397       .  A
C869        H876   1.084       .  S
C870        C871   1.412       .  A
C871        C872   1.413       .  A
C871        N878   1.432       .  S
C872        C873   1.419       .  A
C872        H877   1.080       .  S
C873        C874   1.448       .  A
C874        N875   1.434       .  S
N875        H879   1.043       .  S
N875        H880   1.036       .  S
N878        H881   1.046       .  S
N878        H882   1.046       .  S
C883        C884   1.423       .  A
C883        C888   1.403       .  A
C883        H890   1.071       .  S
C884        C885   1.440       .  A
C885        C886   1.412       .  A
C885        N892   1.437       .  S
C886        C887   1.401       .  A
C886        H891   1.084       .  S
C887        C888   1.406       .  A
C888        N889   1.433       .  S
N889        H893   1.046       .  S
N889        H894   1.045       .  S
N892        H895   1.046       .  S
N892        H896   1.046       .  S
C897        C898   1.420       .  A
C897        C902   1.424       .  A
C897        H904   1.078       .  S
C898        C899   1.430       .  A
C899        C900   1.410       .  A
C899        N906   1.429       .  S
C900        C901   1.407       .  A
C900        H905   1.080       .  S
C901        C902   1.427       .  A
C902        N903   1.429       .  S
N903        H907   1.045       .  S
N903        H908   1.046       .  S
N906        H909   1.040       .  S
N906        H910   1.036       .  S
C911        C912   1.410       .  A
C911        C916   1.431       .  A
C911        H918   1.082       .  S
C912        C913   1.423       .  A
C913        C914   1.400       .  A
C913        N920   1.433       .  S
C914        C915   1.414       .  A
C914        H919   1.062       .  S
C915        C916   1.439       .  A
C916        N917   1.436       .  S
N917        H921   1.041       .  S
N917        H922   1.045       .  S
N920        H923   1.043       .  S
N920        H924   1.045       .  S
C925        C926   1.390       .  A
C925        C930   1.404       .  A
C925        H932   1.062       .  S
C926        C927   1.429       .  A
C927        C928   1.416       .  A
C927        N934   1.432       .  S
C928        C929   1.414       .  A
C928        H933   1.084       .  S
C929        C930   1.435       .  A
C930        N931   1.429       .  S
N931        H935   1.040       .  S
N931        H936   1.043       .  S
N934        H937   1.046       .  S
N934        H938   1.045       .  S
C939        C940   1.393       .  A
C939        C944   1.401       .  A
C939        H946   1.084       .  S
C940        C941   1.418       .  A
C941        C942   1.421       .  A
C941        N948   1.437       .  S
C942        C943   1.415       .  A
C942        H947   1.079       .  S
C943        C944   1.438       .  A
C944        N945   1.433       .  S
N945        H949   1.046       .  S
N945        H950   1.046       .  S
N948        H951   1.046       .  S
N948        H952   1.046       .  S
C953        C954   1.417       .  A
C953        C958   1.395       .  A
C953        H960   1.082       .  S
C954        C955   1.421       .  A
C955        C956   1.421       .  A
C955        N962   1.431       .  S
C956        C957   1.413       .  A
C956        H961   1.083       .  S
C957        C958   1.412       .  A
C958        N959   1.432       .  S
N959        H963   1.045       .  S
N959        H964   1.045       .  S
N962        H965   1.046       .  S
N962        H966   1.045       .  S
C967        C968   1.419       .  A
C967        C972   1.403       .  A
C967        H974   1.068       .  S
C968        C969   1.410       .  A
C969        C970   1.429       .  A
C969        N976   1.442       .  S
C970        C971   1.432       .  A
C970        H975   1.051       .  S
C971        C972   1.434       .  A
C972        N973   1.425       .  S
N973        H977   1.042       .  S
N973        H978   1.046       .  S
N976        H979   1.043       .  S
N976        H980   1.045       .  S
C981        C982   1.401       .  A
C981        C986   1.384       .  A
C981        H988   1.048       .  S
C982        C983   1.453       .  A
C983        C984   1.427       .  A
C983        N990   1.431       .  S
C984        C985   1.403       .  A
C984        H989   1.081       .  S
C985        C986   1.424       .  A
C986        N987   1.438       .  S
N987        H991   1.044       .  S
N987        H992   1.034       .  S
N990        H993   1.046       .  S
N990        H994   1.046       .  S
C995        C996   1.424       .  A
C995       C1000   1.436       .  A
C995       H1002   1.082       .  S
C996        C997   1.389       .  A
C997        C998   1.386       .  A
C997       N1004   1.403       .  S
C998        C999   1.407       .  A
C998       H1003   1.062       .  S
C999       C1000   1.446       .  A
C1000      N1001   1.435       .  S
N1001      H1005   1.045       .  S
N1001      H1006   1.046       .  S
N1004      H1007   1.039       .  S
N1004      H1008   1.032       .  S
C1009      C1010   1.422       .  A
C1009      C1014   1.413       .  A
C1009      H1016   1.084       .  S
C1010      C1011   1.421       .  A
C1011      C1012   1.402       .  A
C1011      N1018   1.431       .  S
C1012      C1013   1.405       .  A
C1012      H1017   1.084       .  S
C1013      C1014   1.411       .  A
C1014      N1015   1.437       .  S
N1015      H1019   1.046       .  S
N1015      H1020   1.045       .  S
N1018      H1021   1.046       .  S
N1018      H1022   1.046       .  S
C1023      C1024   1.412       .  A
C1023      C1028   1.394       .  A
C1023      H1030   1.078       .  S
C1024      C1025   1.440       .  A
C1025      C1026   1.410       .  A
C1025      N1032   1.434       .  S
C1026      C1027   1.411       .  A
C1026      H1031   1.084       .  S
C1027      C1028   1.413       .  A
C1028      N1029   1.425       .  S
N1029      H1033   1.039       .  S
N1029      H1034   1.046       .  S
N1032      H1035   1.031       .  S
N1032      H1036   1.046       .  S
C1037      C1038   1.419       .  A
C1037      C1042   1.398       .  A
C1037      H1044   1.078       .  S
C1038      C1039   1.427       .  A
C1039      C1040   1.416       .  A
C1039      N1046   1.432       .  S
C1040      C1041   1.411       .  A
C1040      H1045   1.084       .  S
C1041      C1042   1.410       .  A
C1042      N1043   1.432       .  S
N1043      H1047   1.045       .  S
N1043      H1048   1.045       .  S
N1046      H1049   1.046       .  S
N1046      H1050   1.045       .  S
C1051      C1052   1.406       .  A
C1051      C1056   1.402       .  A
C1051      H1058   1.069       .  S
C1052      C1053   1.418       .  A
C1053      C1054   1.429       .  A
C1053      N1060   1.431       .  S
C1054      C1055   1.438       .  A
C1054      H1059   1.064       .  S
C1055      C1056   1.439       .  A
C1056      N1057   1.423       .  S
N1057      H1061   1.046       .  S
N1057      H1062   1.043       .  S
N1060      H1063   1.046       .  S
N1060      H1064   1.045       .  S
C1065      C1066   1.401       .  A
C1065      C1070   1.411       .  A
C1065      H1072   1.084       .  S
C1066      C1067   1.411       .  A
C1067      C1068   1.411       .  A
C1067      N1074   1.435       .  S
C1068      C1069   1.426       .  A
C1068      H1073   1.061       .  S
C1069      C1070   1.446       .  A
C1070      N1071   1.427       .  S
N1071      H1075   1.046       .  S
N1071      H1076   1.043       .  S
N1074      H1077   1.043       .  S
N1074      H1078   1.045       .  S
C1079      C1080   1.428       .  A
C1079      C1084   1.426       .  A
C1079      H1086   1.077       .  S
C1080      C1081   1.437       .  A
C1081      C1082   1.397       .  A
C1081      N1088   1.439       .  S
C1082      C1083   1.398       .  A
C1082      H1087   1.078       .  S
C1083      C1084   1.423       .  A
C1084      N1085   1.431       .  S
N1085      H1089   1.046       .  S
N1085      H1090   1.045       .  S
N1088      H1091   1.032       .  S
N1088      H1092   1.045       .  S
C1093      C1094   1.418       .  A
C1093      C1098   1.397       .  A
C1093      H1100   1.066       .  S
C1094      C1095   1.429       .  A
C1095      C1096   1.421       .  A
C1095      N1102   1.428       .  S
C1096      C1097   1.409       .  A
C1096      H1101   1.084       .  S
C1097      C1098   1.408       .  A
C1098      N1099   1.433       .  S
N1099      H1103   1.045       .  S
N1099      H1104   1.045       .  S
N1102      H1105   1.046       .  S
N1102      H1106   1.046       .  S
C1107      C1108   1.409       .  A
C1107      C1112   1.411       .  A
C1107      H1114   1.073       .  S
C1108      C1109   1.437       .  A
C1109      C1110   1.430       .  A
C1109      N1116   1.435       .  S
C1110      C1111   1.420       .  A
C1110      H1115   1.080       .  S
C1111      C1112   1.424       .  A
C1112      N1113   1.437       .  S
N1113      H1117   1.042       .  S
N1113      H1118   1.045       .  S
N1116      H1119   1.045       .  S
N1116      H1120   1.045       .  S
C1121      C2189   1.614       .  S
C1121      C2200   1.595       .  S
C1121      C2214   1.600       .  S
C1121      C2231   1.638       .  S
C1122      C2144   1.591       .  S
C1122      C2158   1.571       .  S
C1122      C2172   1.590       .  S
C1122      C2203   1.578       .  S
C1123      C2102   1.614       .  S
C1123      C2119   1.616       .  S
C1123      C2130   1.555       .  S
C1123      C2186   1.591       .  S
C1124      C2074   1.579       .  S
C1124      C2088   1.617       .  S
C1124      C2116   1.586       .  S
C1124      C2175   1.642       .  S
C1125      C2032   1.597       .  S
C1125      C2046   1.582       .  S
C1125      C2063   1.569       .  S
C1125      C2105   1.572       .  S
C1126      C2004   1.599       .  S
C1126      C2018   1.598       .  S
C1126      C2049   1.627       .  S
C1126      C2091   1.633       .  S
C1127      C1976   1.615       .  S
C1127      C1993   1.582       .  S
C1127      C2035   1.612       .  S
C1127      C2228   1.595       .  S
C1128      C1962   1.563       .  S
C1128      C1979   1.599       .  S
C1128      C2021   1.601       .  S
C1128      C2147   1.580       .  S
C1129      C1906   1.635       .  S
C1129      C1923   1.589       .  S
C1129      C1937   1.584       .  S
C1129      C1948   1.616       .  S
C1130      C1864   1.609       .  S
C1130      C1878   1.573       .  S
C1130      C1892   1.627       .  S
C1130      C1920   1.612       .  S
C1131      C1822   1.617       .  S
C1131      C1836   1.570       .  S
C1131      C1850   1.612       .  S
C1131      C1951   1.593       .  S
C1132      C1794   1.594       .  S
C1132      C1811   1.565       .  S
C1132      C1825   1.594       .  S
C1132      C1867   1.606       .  S
C1133      C1752   1.600       .  S
C1133      C1766   1.578       .  S
C1133      C1780   1.569       .  S
C1133      C1853   1.616       .  S
C1134      C1724   1.629       .  S
C1134      C1738   1.555       .  S
C1134      C1755   1.597       .  S
C1134      C1797   1.601       .  S
C1135      C1696   1.602       .  S
C1135      C1710   1.559       .  S
C1135      C1783   1.576       .  S
C1135      C1909   1.634       .  S
C1136      C1682   1.563       .  S
C1136      C1699   1.600       .  S
C1136      C1727   1.599       .  S
C1136      C1895   1.611       .  S
O1137      C1140   1.264       .  A
O1137     Cd1142   2.503       .  S
C1138      O1147   1.260       .  A
C1138      O1143   1.269       .  A
C1138      C1881   1.492       .  S
O1139      C1145   1.266       .  A
O1139     Cd1142   2.464       .  S
C1140      O1148   1.260       .  A
C1140      C1640   1.491       .  S
C1141      O1146   1.262       .  A
C1141      O1144   1.263       .  A
C1141      C1671   1.473       .  S
Cd1142     O1149   2.521       .  S
Cd1142     O1148   2.485       .  S
Cd1142     O1147   2.507       .  S
Cd1142     O1143   2.495       .  S
Cd1142     O1146   2.433       .  S
Cd1142     O1144   2.439       .  S
C1145      O1149   1.273       .  A
C1145      C1654   1.497       .  S
O1150      C1153   1.271       .  A
O1150     Cd1155   2.480       .  S
C1151      O1160   1.264       .  A
C1151      O1156   1.265       .  A
C1151      C1612   1.491       .  S
O1152      C1158   1.263   1_455  A
O1152     Cd1155   2.434   1_455  S
C1153      O1161   1.262       .  A
C1153      C1934   1.493       .  S
C1154      O1159   1.263   1_455  A
C1154      O1157   1.270       .  A
C1154      C1626   1.491       .  S
Cd1155     O1162   2.439       .  S
Cd1155     O1161   2.461       .  S
Cd1155     O1160   2.496   1_655  S
Cd1155     O1156   2.464   1_655  S
Cd1155     O1159   2.438       .  S
Cd1155     O1157   2.526   1_655  S
C1158      O1162   1.265       .  A
C1158      C1668   1.470       .  S
O1163      C1166   1.265   1_545  A
O1163     Cd1168   2.435       .  S
C1164      O1173   1.270       .  A
C1164      O1169   1.262       .  A
C1164      C1584   1.492       .  S
O1165      C1171   1.271       .  A
O1165     Cd1168   2.489   1_565  S
C1166      O1174   1.265       .  A
C1166      C1598   1.467       .  S
C1167      O1172   1.264       .  A
C1167      O1170   1.265       .  A
C1167      C1570   1.498       .  S
Cd1168     O1175   2.463   1_545  S
Cd1168     O1174   2.391   1_545  S
Cd1168     O1173   2.516       .  S
Cd1168     O1169   2.438       .  S
Cd1168     O1172   2.487       .  S
Cd1168     O1170   2.494       .  S
C1171      O1175   1.261       .  A
C1171      C1713   1.493       .  S
O1176      C1179   1.262       .  A
O1176     Cd1181   2.464       .  S
C1177      O1186   1.262       .  A
C1177      O1182   1.270       .  A
C1177      C1685   1.498       .  S
O1178      C1184   1.262       .  A
O1178     Cd1181   2.424       .  S
C1179      O1187   1.267       .  A
C1179      C1559   1.499       .  S
C1180      O1185   1.265   1_655  A
C1180      O1183   1.265       .  A
C1180      C1601   1.473       .  S
Cd1181     O1188   2.531       .  S
Cd1181     O1187   2.553       .  S
Cd1181     O1186   2.502   1_455  S
Cd1181     O1182   2.497   1_455  S
Cd1181     O1185   2.423       .  S
Cd1181     O1183   2.421   1_455  S
C1184      O1188   1.271       .  A
C1184      C1629   1.494       .  S
O1189      C1192   1.272       .  A
O1189     Cd1194   2.510       .  S
C1190      O1199   1.266       .  A
C1190      O1195   1.261       .  A
C1190      C1514   1.490       .  S
O1191      C1197   1.264       .  A
O1191     Cd1194   2.407       .  S
C1192      O1200   1.262       .  A
C1192      C1808   1.494       .  S
C1193      O1198   1.262       .  A
C1193      O1196   1.270       .  A
C1193      C1528   1.492       .  S
Cd1194     O1201   2.429       .  S
Cd1194     O1200   2.446       .  S
Cd1194     O1199   2.530       .  S
Cd1194     O1195   2.446       .  S
Cd1194     O1198   2.464       .  S
Cd1194     O1196   2.501       .  S
C1197      O1201   1.264       .  A
C1197      C1542   1.463       .  S
O1202      C1205   1.272       .  A
O1202     Cd1207   2.485       .  S
C1203      O1212   1.263       .  A
C1203      O1208   1.264       .  A
C1203      C1500   1.497       .  S
O1204      C1210   1.263       .  A
O1204     Cd1207   2.414       .  S
C1205      O1213   1.263       .  A
C1205      C1839   1.494       .  S
C1206      O1211   1.261       .  A
C1206      O1209   1.272       .  A
C1206      C1657   1.496       .  S
Cd1207     O1214   2.434       .  S
Cd1207     O1213   2.471       .  S
Cd1207     O1212   2.478       .  S
Cd1207     O1208   2.533       .  S
Cd1207     O1211   2.422       .  S
Cd1207     O1209   2.522       .  S
C1210      O1214   1.262       .  A
C1210      C1545   1.468       .  S
O1215      C1218   1.267       .  A
O1215     Cd1220   2.528       .  S
C1216      O1225   1.263       .  A
C1216      O1221   1.270       .  A
C1216      C1769   1.496       .  S
O1217      C1223   1.264       .  A
O1217     Cd1220   2.453       .  S
C1218      O1226   1.261       .  A
C1218      C1472   1.490       .  S
C1219      O1224   1.264       .  A
C1219      O1222   1.262       .  A
C1219      C1486   1.471       .  S
Cd1220     O1227   2.535       .  S
Cd1220     O1226   2.460       .  S
Cd1220     O1225   2.484       .  S
Cd1220     O1221   2.516       .  S
Cd1220     O1224   2.467       .  S
Cd1220     O1222   2.415       .  S
C1223      O1227   1.271       .  A
C1223      C1531   1.499       .  S
O1228      C1231   1.271       .  A
O1228     Cd1233   2.495   1_565  S
C1229      O1238   1.266       .  A
C1229      O1234   1.262       .  A
C1229      C1458   1.491       .  S
O1230      C1236   1.263   1_545  A
O1230     Cd1233   2.414       .  S
C1231      O1239   1.262       .  A
C1231      C1741   1.489       .  S
C1232      O1237   1.263       .  A
C1232      O1235   1.273       .  A
C1232      C1587   1.496       .  S
Cd1233     O1240   2.427   1_545  S
Cd1233     O1239   2.473   1_545  S
Cd1233     O1238   2.510       .  S
Cd1233     O1234   2.473       .  S
Cd1233     O1237   2.434       .  S
Cd1233     O1235   2.517       .  S
C1236      O1240   1.262       .  A
C1236      C1489   1.468       .  S
O1241      C1244   1.267       .  A
O1241     Cd1246   2.533       .  S
C1242      O1251   1.262       .  A
C1242      O1247   1.271       .  A
C1242      C2217   1.500       .  S
O1243      C1249   1.265       .  A
O1243     Cd1246   2.426       .  S
C1244      O1252   1.260       .  A
C1244      C1503   1.492       .  S
C1245      O1250   1.271       .  A
C1245      O1248   1.263       .  A
C1245      C1433   1.500       .  S
Cd1246     O1253   2.394       .  S
Cd1246     O1252   2.461       .  S
Cd1246     O1251   2.481       .  S
Cd1246     O1247   2.501       .  S
Cd1246     O1250   2.524       .  S
Cd1246     O1248   2.479       .  S
C1249      O1253   1.263       .  A
C1249      C1444   1.466       .  S
O1254      C1257   1.264       .  A
O1254     Cd1259   2.458       .  S
C1255      O1264   1.263       .  A
C1255      O1260   1.270       .  A
C1255      C2161   1.502       .  S
O1256      C1262   1.262       .  A
O1256     Cd1259   2.426       .  S
C1257      O1265   1.266       .  A
C1257      C1517   1.492       .  S
C1258      O1263   1.261       .  A
C1258      O1261   1.272       .  A
C1258      C1416   1.499       .  S
Cd1259     O1266   2.432       .  S
Cd1259     O1265   2.510       .  S
Cd1259     O1264   2.478       .  S
Cd1259     O1260   2.518       .  S
Cd1259     O1263   2.457       .  S
Cd1259     O1261   2.515       .  S
C1262      O1266   1.265       .  A
C1262      C1447   1.470       .  S
O1267      C1270   1.272       .  A
O1267     Cd1272   2.512       .  S
C1268      O1277   1.262       .  A
C1268      O1273   1.267       .  A
C1268      C1461   1.490       .  S
O1269      C1275   1.270       .  A
O1269     Cd1272   2.506       .  S
C1270      O1278   1.261       .  A
C1270      C2077   1.499       .  S
C1271      O1276   1.262       .  A
C1271      O1274   1.267       .  A
C1271      C1405   1.461       .  S
Cd1272     O1279   2.464       .  S
Cd1272     O1278   2.472       .  S
Cd1272     O1277   2.469       .  S
Cd1272     O1273   2.511       .  S
Cd1272     O1276   2.367       .  S
Cd1272     O1274   2.475       .  S
C1275      O1279   1.263       .  A
C1275      C1430   1.496       .  S
O1280      C1283   1.262   1_545  A
O1280     Cd1285   2.469       .  S
C1281      O1290   1.262       .  A
C1281      O1286   1.268       .  A
C1281      C2133   1.493       .  S
O1282      C1288   1.265       .  A
O1282     Cd1285   2.441       .  S
C1283      O1291   1.266       .  A
C1283      C1475   1.493       .  S
C1284      O1289   1.263       .  A
C1284      O1287   1.270       .  A
C1284      C1388   1.496       .  S
Cd1285     O1292   2.447       .  S
Cd1285     O1291   2.516   1_545  S
Cd1285     O1290   2.455       .  S
Cd1285     O1286   2.518       .  S
Cd1285     O1289   2.464       .  S
Cd1285     O1287   2.522       .  S
C1288      O1292   1.266       .  A
C1288      C1402   1.478       .  S
O1293      C1296   1.268       .  A
O1293     Cd1298   2.535       .  S
C1294      O1303   1.263       .  A
C1294      O1299   1.271       .  A
C1294      C2060   1.501       .  S
O1295      C1301   1.264       .  A
O1295     Cd1298   2.415       .  S
C1296      O1304   1.262       .  A
C1296      C1573   1.496   1_455  S
C1297      O1302   1.262       .  A
C1297      O1300   1.272       .  A
C1297      C1363   1.495       .  S
Cd1298     O1305   2.417       .  S
Cd1298     O1304   2.465       .  S
Cd1298     O1303   2.505       .  S
Cd1298     O1299   2.491       .  S
Cd1298     O1302   2.458       .  S
Cd1298     O1300   2.522       .  S
C1301      O1305   1.263       .  A
C1301      C1377   1.465       .  S
O1306      C1309   1.263   1_545  A
O1306     Cd1311   2.467       .  S
C1307      O1316   1.261       .  A
C1307      O1312   1.270       .  A
C1307      C2007   1.494       .  S
O1308      C1314   1.265       .  A
O1308     Cd1311   2.420       .  S
C1309      O1317   1.269       .  A
C1309      C1556   1.499       .  S
C1310      O1315   1.264       .  A
C1310      O1313   1.271       .  A
C1310      C1391   1.501       .  S
Cd1311     O1318   2.447       .  S
Cd1311     O1317   2.551   1_545  S
Cd1311     O1316   2.480       .  S
Cd1311     O1312   2.523       .  S
Cd1311     O1315   2.491       .  S
Cd1311     O1313   2.530       .  S
C1314      O1318   1.265       .  A
C1314      C1374   1.473       .  S
O1319      C1322   1.264       .  A
O1319     Cd1324   2.504       .  S
C1320      O1329   1.262       .  A
C1320      O1325   1.271       .  A
C1320      C1990   1.495       .  S
O1321      C1327   1.262       .  A
O1321     Cd1324   2.387       .  S
C1322      O1330   1.262       .  A
C1322      C1615   1.493       .  S
C1323      O1328   1.262       .  A
C1323      O1326   1.272       .  A
C1323      C1419   1.491       .  S
Cd1324     O1331   2.458       .  S
Cd1324     O1330   2.464       .  S
Cd1324     O1329   2.473       .  S
Cd1324     O1325   2.491       .  S
Cd1324     O1328   2.428       .  S
Cd1324     O1326   2.522       .  S
C1327      O1331   1.265       .  A
C1327      C1346   1.467       .  S
O1332      C1335   1.264   1_655  A
O1332     Cd1337   2.500   1_655  S
C1333      O1342   1.259       .  A
C1333      O1338   1.272       .  A
C1333      C1965   1.499       .  S
O1334      C1340   1.265       .  A
O1334     Cd1337   2.425       .  S
C1335      O1343   1.262       .  A
C1335      C1643   1.496   1_455  S
C1336      O1341   1.262       .  A
C1336      O1339   1.272       .  A
C1336      C1360   1.494       .  S
Cd1337     O1344   2.420       .  S
Cd1337     O1343   2.480       .  S
Cd1337     O1342   2.442       .  S
Cd1337     O1338   2.532       .  S
Cd1337     O1341   2.452       .  S
Cd1337     O1339   2.521       .  S
C1340      O1344   1.263       .  A
C1340      C1349   1.471       .  S
C1345      C1350   1.395       .  A
C1345      H1352   1.084       .  S
C1346      C1347   1.409       .  A
C1347      C1348   1.396       .  A
C1347      N1354   1.439       .  S
C1348      H1353   1.083       .  S
C1349      C1350   1.411   1_556  A
C1350      N1351   1.433       .  S
N1351      H1355   1.045       .  S
N1351      H1356   1.046       .  S
N1354      H1357   1.046       .  S
N1354      H1358   1.046       .  S
C1359      C1360   1.402       .  A
C1359      C1364   1.402       .  A
C1359      H1366   1.084       .  S
C1361      C1362   1.402       .  A
C1361      N1368   1.433       .  S
C1362      C1363   1.403       .  A
C1362      H1367   1.084       .  S
C1364      N1365   1.433       .  S
N1365      H1369   1.045       .  S
N1365      H1370   1.045       .  S
N1368      H1372   1.045       .  S
C1373      C1378   1.395       .  A
C1373      H1380   1.084       .  S
C1374      C1375   1.410       .  A
C1375      C1376   1.402       .  A
C1375      N1382   1.433       .  S
C1376      H1381   1.084       .  S
C1377      C1378   1.408       .  A
C1378      N1379   1.433       .  S
N1379      H1383   1.046       .  S
N1379      H1384   1.046       .  S
N1382      H1385   1.046       .  S
N1382      H1386   1.046       .  S
C1387      C1392   1.410       .  A
C1387      H1394   1.083       .  S
C1388      C1389   1.414       .  A
C1389      C1390   1.410       .  A
C1389      N1396   1.438       .  S
C1390      H1395   1.084       .  S
C1391      C1392   1.412       .  A
C1392      N1393   1.437       .  S
N1393      H1397   1.046       .  S
N1393      H1398   1.046       .  S
N1396      H1399   1.045       .  S
N1396      H1400   1.046       .  S
C1401      C1402   1.404       .  A
C1401      C1406   1.404       .  A
C1401      H1408   1.083       .  S
C1403      C1404   1.403   1_554  A
C1403      N1410   1.432       .  S
C1404      C1405   1.401       .  A
C1404      H1409   1.084       .  S
C1406      N1407   1.437       .  S
N1407      H1411   1.046       .  S
N1407      H1412   1.046       .  S
N1410      H1413   1.046       .  S
N1410      H1414   1.046       .  S
C1415      C1416   1.405       .  A
C1415      C1420   1.409       .  A
C1415      H1422   1.083       .  S
C1417      C1418   1.401       .  A
C1417      N1424   1.433       .  S
C1418      C1419   1.402       .  A
C1418      H1423   1.084       .  S
C1420      N1421   1.438       .  S
N1421      H1425   1.046       .  S
N1421      H1426   1.046   1_556  S
N1424      H1427   1.046       .  S
N1424      H1428   1.045       .  S
C1429      C1430   1.409   1_554  A
C1429      C1434   1.408       .  A
C1429      H1436   1.084       .  S
C1431      C1432   1.411       .  A
C1431      N1438   1.432       .  S
C1432      C1433   1.411       .  A
C1432      H1437   1.084       .  S
C1434      N1435   1.432       .  S
N1435      H1439   1.046       .  S
N1435      H1440   1.046       .  S
N1438      H1441   1.045       .  S
N1438      H1442   1.046       .  S
C1443      C1444   1.403       .  A
C1443      C1448   1.395       .  A
C1443      H1450   1.084       .  S
C1445      C1446   1.396       .  A
C1445      N1452   1.433       .  S
C1446      C1447   1.402       .  A
C1446      H1451   1.084       .  S
C1448      N1449   1.433       .  S
N1449      H1453   1.046       .  S
N1449      H1454   1.046       .  S
N1452      H1455   1.046       .  S
N1452      H1456   1.046       .  S
C1457      C1458   1.406       .  A
C1457      C1462   1.407       .  A
C1457      H1464   1.084       .  S
C1458      C1459   1.415       .  A
C1459      C1460   1.409       .  A
C1459      N1466   1.437       .  S
C1460      C1461   1.404       .  A
C1460      H1465   1.083       .  S
C1461      C1462   1.413       .  A
C1462      N1463   1.433       .  S
N1463      H1467   1.046       .  S
N1463      H1468   1.046       .  S
N1466      H1469   1.045       .  S
N1466      H1470   1.046       .  S
C1471      C1472   1.405       .  A
C1471      C1476   1.406       .  A
C1471      H1478   1.084       .  S
C1472      C1473   1.410       .  A
C1473      C1474   1.406       .  A
C1473      N1480   1.432       .  S
C1474      C1475   1.407       .  A
C1474      H1479   1.084       .  S
C1475      C1476   1.419       .  A
C1476      N1477   1.432       .  S
N1477      H1481   1.045       .  S
N1477      H1482   1.045       .  S
N1480      H1483   1.046       .  S
N1480      H1484   1.046       .  S
C1485      C1490   1.397       .  A
C1485      H1492   1.084       .  S
C1486      C1487   1.411       .  A
C1487      C1488   1.401       .  A
C1487      N1494   1.438       .  S
C1488      H1493   1.083   1_565  S
C1489      C1490   1.408       .  A
C1490      N1491   1.433       .  S
N1491      H1495   1.046       .  S
N1491      H1496   1.046       .  S
N1494      H1497   1.046       .  S
N1494      H1498   1.046       .  S
C1499      C1500   1.407       .  A
C1499      C1504   1.408       .  A
C1499      H1506   1.083       .  S
C1500      C1501   1.414       .  A
C1501      C1502   1.411       .  A
C1501      N1508   1.432       .  S
C1502      C1503   1.406       .  A
C1502      H1507   1.084       .  S
C1503      C1504   1.414       .  A
C1504      N1505   1.438       .  S
N1505      H1509   1.046       .  S
N1505      H1510   1.046       .  S
N1508      H1511   1.046       .  S
N1508      H1512   1.046       .  S
C1513      C1514   1.406       .  A
C1513      C1518   1.410       .  A
C1513      H1520   1.084       .  S
C1514      C1515   1.414       .  A
C1515      C1516   1.405       .  A
C1515      N1522   1.438       .  S
C1516      C1517   1.405       .  A
C1516      H1521   1.083       .  S
C1517      C1518   1.414       .  A
C1518      N1519   1.432       .  S
N1519      H1524   1.046       .  S
N1522      H1525   1.046       .  S
N1522      H1526   1.046       .  S
C1527      C1532   1.412       .  A
C1528      C1529   1.409       .  A
C1529      N1536   1.433       .  S
C1530      C1531   1.410       .  A
C1530      H1535   1.083       .  S
C1531      C1532   1.415       .  A
C1532      N1533   1.437       .  S
N1533      H1537   1.046       .  S
N1533      H1538   1.045       .  S
N1536      H1539   1.046       .  S
N1536      H1540   1.045       .  S
C1541      C1546   1.393       .  A
C1541      H1548   1.084       .  S
C1542      C1543   1.405       .  A
C1543      C1544   1.398       .  A
C1543      N1550   1.433       .  S
C1544      H1549   1.084       .  S
C1545      C1546   1.414       .  A
C1546      N1547   1.433       .  S
N1547      H1551   1.045       .  S
N1547      H1552   1.045       .  S
N1550      H1553   1.046       .  S
N1550      H1554   1.046       .  S
C1555      C1556   1.406       .  A
C1555      C1560   1.405       .  A
C1555      H1562   1.084       .  S
C1556      C1557   1.414       .  A
C1557      C1558   1.415       .  A
C1557      N1564   1.432       .  S
C1558      C1559   1.409       .  A
C1558      H1563   1.083       .  S
C1559      C1560   1.413       .  A
C1560      N1561   1.432       .  S
N1561      H1565   1.046       .  S
N1561      H1566   1.046       .  S
N1564      H1567   1.046       .  S
N1564      H1568   1.046       .  S
C1569      C1570   1.408       .  A
C1569      C1574   1.410       .  A
C1569      H1576   1.083       .  S
C1570      C1571   1.421       .  A
C1571      C1572   1.405       .  A
C1571      N1578   1.432       .  S
C1572      C1573   1.405       .  A
C1572      H1577   1.084       .  S
C1573      C1574   1.415       .  A
C1574      N1575   1.438   1_655  S
N1575      H1579   1.046       .  S
N1575      H1580   1.046       .  S
N1578      H1581   1.045       .  S
N1578      H1582   1.045       .  S
C1583      C1588   1.410       .  A
C1583      H1590   1.083       .  S
C1584      C1585   1.412       .  A
C1585      C1586   1.409       .  A
C1585      N1592   1.438       .  S
C1586      H1591   1.083       .  S
C1587      C1588   1.413       .  A
C1588      N1589   1.437       .  S
N1589      H1593   1.046       .  S
N1589      H1594   1.046       .  S
N1592      H1595   1.046       .  S
N1592      H1596   1.046       .  S
C1597      C1602   1.396       .  A
C1597      H1604   1.084       .  S
C1598      C1599   1.410       .  A
C1599      C1600   1.396       .  A
C1599      N1606   1.438       .  S
C1600      H1605   1.083   1_655  S
C1601      C1602   1.410       .  A
C1602      N1603   1.433       .  S
N1603      H1607   1.046       .  S
N1603      H1608   1.046       .  S
N1606      H1609   1.046       .  S
N1606      H1610   1.046       .  S
C1611      C1612   1.405       .  A
C1611      C1616   1.399       .  A
C1611      H1618   1.084       .  S
C1612      C1613   1.415       .  A
C1613      C1614   1.410       .  A
C1613      N1620   1.438       .  S
C1614      C1615   1.408       .  A
C1614      H1619   1.083       .  S
C1615      C1616   1.418       .  A
C1616      N1617   1.432       .  S
N1617      H1621   1.045       .  S
N1617      H1622   1.045       .  S
N1620      H1623   1.046       .  S
N1620      H1624   1.046       .  S
C1625      C1626   1.407       .  A
C1626      C1627   1.412       .  A
C1627      C1628   1.411       .  A
C1627      N1634   1.438       .  S
C1628      H1633   1.084       .  S
C1629      C1630   1.413       .  A
C1630      N1631   1.438       .  S
N1631      H1635   1.046       .  S
N1631      H1636   1.046       .  S
N1634      H1637   1.046   1_455  S
N1634      H1638   1.046       .  S
C1639      C1640   1.405       .  A
C1639      C1644   1.403       .  A
C1639      H1646   1.084       .  S
C1640      C1641   1.412       .  A
C1641      C1642   1.407       .  A
C1641      N1648   1.433       .  S
C1642      C1643   1.409       .  A
C1642      H1647   1.084   1_655  S
C1643      C1644   1.420       .  A
C1644      N1645   1.432       .  S
N1645      H1649   1.045       .  S
N1645      H1650   1.045       .  S
N1648      H1651   1.046       .  S
N1648      H1652   1.046       .  S
C1653      C1654   1.402       .  A
C1653      C1658   1.403       .  A
C1653      H1660   1.084       .  S
C1655      C1656   1.410       .  A
C1655      N1662   1.438       .  S
C1656      C1657   1.405       .  A
C1656      H1661   1.083       .  S
C1658      N1659   1.433       .  S
N1659      H1663   1.045       .  S
N1659      H1664   1.046       .  S
N1662      H1665   1.046       .  S
N1662      H1666   1.046       .  S
C1667      C1668   1.403       .  A
C1667      C1672   1.402       .  A
C1667      H1674   1.084       .  S
C1669      C1670   1.397       .  A
C1669      N1676   1.433   1_655  S
C1670      C1671   1.404       .  A
C1670      H1675   1.084       .  S
C1672      N1673   1.438       .  S
N1673      H1677   1.046       .  S
N1673      H1678   1.046       .  S
N1676      H1679   1.046   1_455  S
N1676      H1680   1.046       .  S
C1681      C1682   1.421       .  A
C1681      C1686   1.398       .  A
C1681      H1688   1.080       .  S
C1682      C1683   1.424       .  A
C1683      C1684   1.418       .  A
C1683      N1690   1.430       .  S
C1684      C1685   1.410       .  A
C1684      H1689   1.084       .  S
C1685      C1686   1.402       .  A
C1686      N1687   1.433       .  S
N1687      H1691   1.046       .  S
N1687      H1692   1.046       .  S
N1690      H1693   1.046       .  S
N1690      H1694   1.046       .  S
C1695      C1696   1.430       .  A
C1695      C1700   1.434       .  A
C1695      H1702   1.076       .  S
C1696      C1697   1.395       .  A
C1697      C1698   1.383       .  A
C1697      N1704   1.408       .  S
C1698      C1699   1.378       .  A
C1698      H1703   1.041       .  S
C1699      C1700   1.444       .  A
C1700      N1701   1.431       .  S
N1701      H1705   1.042       .  S
N1701      H1706   1.041       .  S
N1704      H1707   1.018       .  S
N1704      H1708   1.034       .  S
C1709      C1710   1.412       .  A
C1709      C1714   1.414       .  A
C1709      H1716   1.079       .  S
C1710      C1711   1.446       .  A
C1711      C1712   1.395       .  A
C1711      N1718   1.444       .  S
C1712      C1713   1.393       .  A
C1712      H1717   1.084       .  S
C1713      C1714   1.417       .  A
C1714      N1715   1.438       .  S
N1715      H1719   1.046       .  S
N1715      H1720   1.046       .  S
N1718      H1721   1.037       .  S
N1718      H1722   1.046       .  S
C1723      C1724   1.391       .  A
C1723      C1728   1.393       .  A
C1723      H1730   1.071       .  S
C1724      C1725   1.448       .  A
C1725      C1726   1.444       .  A
C1725      N1732   1.428       .  S
C1726      C1727   1.419       .  A
C1726      H1731   1.080       .  S
C1727      C1728   1.425       .  A
C1728      N1729   1.420       .  S
N1729      H1733   1.043       .  S
N1729      H1734   0.986       .  S
N1732      H1735   1.046       .  S
N1732      H1736   1.045       .  S
C1737      C1738   1.415       .  A
C1737      C1742   1.414       .  A
C1737      H1744   1.083       .  S
C1738      C1739   1.424       .  A
C1739      C1740   1.403       .  A
C1739      N1746   1.431       .  S
C1740      C1741   1.398       .  A
C1740      H1745   1.084       .  S
C1741      C1742   1.414       .  A
C1742      N1743   1.437       .  S
N1743      H1747   1.046       .  S
N1743      H1748   1.045       .  S
N1746      H1749   1.045       .  S
N1746      H1750   1.045       .  S
C1751      C1752   1.436       .  A
C1751      C1756   1.414       .  A
C1751      H1758   1.084       .  S
C1752      C1753   1.406       .  A
C1753      C1754   1.413       .  A
C1753      N1760   1.424       .  S
C1754      C1755   1.431       .  A
C1754      H1759   1.065       .  S
C1755      C1756   1.415       .  A
C1756      N1757   1.432       .  S
N1757      H1761   1.045       .  S
N1757      H1762   1.046       .  S
N1760      H1763   1.045       .  S
N1760      H1764   1.040       .  S
C1765      C1766   1.419       .  A
C1765      C1770   1.406       .  A
C1765      H1772   1.081       .  S
C1766      C1767   1.432       .  A
C1767      C1768   1.408       .  A
C1767      N1774   1.430       .  S
C1768      C1769   1.399       .  A
C1768      H1773   1.084       .  S
C1769      C1770   1.415       .  A
C1770      N1771   1.432       .  S
N1771      H1775   1.045       .  S
N1771      H1776   1.046       .  S
N1774      H1777   1.046       .  S
N1774      H1778   1.046       .  S
C1779      C1780   1.410       .  A
C1779      C1784   1.422       .  A
C1779      H1786   1.080       .  S
C1780      C1781   1.431       .  A
C1781      C1782   1.377       .  A
C1781      N1788   1.439       .  S
C1782      C1783   1.392       .  A
C1782      H1787   1.070       .  S
C1783      C1784   1.440       .  A
C1784      N1785   1.436       .  S
N1785      H1789   1.045       .  S
N1785      H1790   1.045       .  S
N1788      H1791   1.039       .  S
N1788      H1792   1.031       .  S
C1793      C1794   1.443       .  A
C1793      C1798   1.443       .  A
C1793      H1800   1.076       .  S
C1794      C1795   1.417       .  A
C1795      C1796   1.386       .  A
C1795      N1802   1.443       .  S
C1796      C1797   1.379       .  A
C1796      H1801   1.056       .  S
C1797      C1798   1.427       .  A
C1798      N1799   1.438       .  S
N1799      H1803   1.045       .  S
N1799      H1804   1.044       .  S
N1802      H1805   1.035       .  S
N1802      H1806   1.034       .  S
C1807      C1808   1.398       .  A
C1807      C1812   1.405       .  A
C1807      H1814   1.084       .  S
C1808      C1809   1.415       .  A
C1809      C1810   1.408       .  A
C1809      N1816   1.433       .  S
C1810      C1811   1.413       .  A
C1810      H1815   1.081       .  S
C1811      C1812   1.428       .  A
C1812      N1813   1.430       .  S
N1813      H1817   1.046       .  S
N1813      H1818   1.046       .  S
N1816      H1819   1.046       .  S
N1816      H1820   1.046       .  S
C1821      C1822   1.425       .  A
C1821      C1826   1.430       .  A
C1821      H1828   1.073       .  S
C1822      C1823   1.414       .  A
C1823      C1824   1.389       .  A
C1823      N1830   1.441       .  S
C1824      C1825   1.417       .  A
C1824      H1829   1.073       .  S
C1825      C1826   1.448       .  A
C1826      N1827   1.440       .  S
N1827      H1831   1.046       .  S
N1827      H1832   1.038       .  S
N1830      H1833   1.047       .  S
N1830      H1834   1.040       .  S
C1835      C1836   1.423       .  A
C1835      C1840   1.395       .  A
C1835      H1842   1.080       .  S
C1836      C1837   1.423       .  A
C1837      C1838   1.418       .  A
C1837      N1844   1.429       .  S
C1838      C1839   1.411       .  A
C1838      H1843   1.084       .  S
C1839      C1840   1.400       .  A
C1840      N1841   1.433       .  S
N1841      H1845   1.046       .  S
N1841      H1846   1.046       .  S
N1844      H1847   1.046       .  S
N1844      H1848   1.046       .  S
C1849      C1850   1.417       .  A
C1849      C1854   1.434       .  A
C1849      H1856   1.080       .  S
C1850      C1851   1.413       .  A
C1851      C1852   1.396       .  A
C1851      N1858   1.430       .  S
C1852      C1853   1.427       .  A
C1852      H1857   1.077       .  S
C1853      C1854   1.441       .  A
C1854      N1855   1.436       .  S
N1855      H1859   1.046       .  S
N1855      H1860   1.036       .  S
N1858      H1861   1.044       .  S
N1858      H1862   1.046       .  S
C1863      C1864   1.418       .  A
C1863      C1868   1.412       .  A
C1863      H1870   1.051       .  S
C1864      C1865   1.439       .  A
C1865      C1866   1.414       .  A
C1865      N1872   1.439       .  S
C1866      C1867   1.414       .  A
C1866      H1871   1.064       .  S
C1867      C1868   1.429       .  A
C1868      N1869   1.440       .  S
N1869      H1873   1.044       .  S
N1869      H1874   1.040       .  S
N1872      H1875   1.032       .  S
N1872      H1876   1.039       .  S
C1877      C1878   1.413       .  A
C1877      C1882   1.419       .  A
C1877      H1884   1.082       .  S
C1878      C1879   1.436       .  A
C1879      C1880   1.397       .  A
C1879      N1886   1.432       .  S
C1880      C1881   1.392       .  A
C1880      H1885   1.084       .  S
C1881      C1882   1.414       .  A
C1882      N1883   1.431       .  S
N1883      H1887   1.045       .  S
N1883      H1888   1.045       .  S
N1886      H1889   1.046       .  S
N1886      H1890   1.046       .  S
C1891      C1892   1.422       .  A
C1891      C1896   1.427       .  A
C1891      H1898   1.080       .  S
C1892      C1893   1.430       .  A
C1893      C1894   1.426       .  A
C1893      N1900   1.437       .  S
C1894      C1895   1.421       .  A
C1894      H1899   1.078       .  S
C1895      C1896   1.424       .  A
C1896      N1897   1.432       .  S
N1897      H1901   1.043       .  S
N1897      H1902   1.045       .  S
N1900      H1903   1.040       .  S
N1900      H1904   1.045       .  S
C1905      C1906   1.435       .  A
C1905      C1910   1.442       .  A
C1905      H1912   1.072       .  S
C1906      C1907   1.436       .  A
C1907      C1908   1.417       .  A
C1907      N1914   1.429       .  S
C1908      C1909   1.424       .  A
C1908      H1913   1.074       .  S
C1909      C1910   1.427       .  A
C1910      N1911   1.430       .  S
N1911      H1915   1.045       .  S
N1911      H1916   1.046       .  S
N1914      H1917   1.043       .  S
N1914      H1918   1.026       .  S
C1919      C1920   1.401       .  A
C1919      C1924   1.392       .  A
C1919      H1926   1.057       .  S
C1920      C1921   1.453       .  A
C1921      C1922   1.449       .  A
C1921      N1928   1.427       .  S
C1922      C1923   1.431       .  A
C1922      H1927   1.083       .  S
C1923      C1924   1.379       .  A
C1924      N1925   1.430       .  S
N1925      H1929   1.037       .  S
N1925      H1930   1.045       .  S
N1928      H1931   1.045       .  S
N1928      H1932   1.046       .  S
C1933      C1934   1.391       .  A
C1933      C1938   1.399       .  A
C1933      H1940   1.084       .  S
C1934      C1935   1.417       .  A
C1935      C1936   1.408       .  A
C1935      N1942   1.432       .  S
C1936      C1937   1.415       .  A
C1936      H1941   1.071       .  S
C1937      C1938   1.439       .  A
C1938      N1939   1.428       .  S
N1939      H1943   1.046       .  S
N1939      H1944   1.046       .  S
N1942      H1945   1.045       .  S
N1942      H1946   1.045       .  S
C1947      C1948   1.425       .  A
C1947      C1952   1.431       .  A
C1947      H1954   1.081       .  S
C1948      C1949   1.432       .  A
C1949      C1950   1.399       .  A
C1949      N1956   1.415       .  S
C1950      C1951   1.398       .  A
C1950      H1955   1.073       .  S
C1951      C1952   1.441       .  A
C1952      N1953   1.443       .  S
N1953      H1957   1.046       .  S
N1953      H1958   1.040       .  S
N1956      H1959   1.043       .  S
N1956      H1960   1.046       .  S
C1961      C1962   1.413       .  A
C1961      C1966   1.407       .  A
C1961      H1968   1.080       .  S
C1962      C1963   1.425       .  A
C1963      C1964   1.405       .  A
C1963      N1970   1.428       .  S
C1964      C1965   1.398       .  A
C1964      H1969   1.084       .  S
C1965      C1966   1.423       .  A
C1966      N1967   1.433       .  S
N1967      H1971   1.045       .  S
N1967      H1972   1.045       .  S
N1970      H1973   1.045       .  S
N1970      H1974   1.045       .  S
C1975      C1976   1.422       .  A
C1975      C1980   1.439       .  A
C1975      H1982   1.079       .  S
C1976      C1977   1.418       .  A
C1977      C1978   1.388       .  A
C1977      N1984   1.445       .  S
C1978      C1979   1.416       .  A
C1978      H1983   1.069       .  S
C1979      C1980   1.444       .  A
C1980      N1981   1.433       .  S
N1981      H1985   1.045       .  S
N1981      H1986   1.045       .  S
N1984      H1987   1.046       .  S
N1984      H1988   1.044       .  S
C1989      C1990   1.391       .  A
C1989      C1994   1.397       .  A
C1989      H1996   1.085       .  S
C1990      C1991   1.411       .  A
C1991      C1992   1.413       .  A
C1991      N1998   1.432       .  S
C1992      C1993   1.419       .  A
C1992      H1997   1.080       .  S
C1993      C1994   1.450       .  A
C1994      N1995   1.434       .  S
N1995      H1999   1.043       .  S
N1995      H2000   1.035       .  S
N1998      H2001   1.046       .  S
N1998      H2002   1.046       .  S
C2003      C2004   1.422       .  A
C2003      C2008   1.405       .  A
C2003      H2010   1.072       .  S
C2004      C2005   1.443       .  A
C2005      C2006   1.413       .  A
C2005      N2012   1.437       .  S
C2006      C2007   1.399       .  A
C2006      H2011   1.084       .  S
C2007      C2008   1.406       .  A
C2008      N2009   1.433       .  S
N2009      H2013   1.046       .  S
N2009      H2014   1.044       .  S
N2012      H2015   1.046       .  S
N2012      H2016   1.046       .  S
C2017      C2018   1.420       .  A
C2017      C2022   1.424       .  A
C2017      H2024   1.078       .  S
C2018      C2019   1.429       .  A
C2019      C2020   1.409       .  A
C2019      N2026   1.429       .  S
C2020      C2021   1.403       .  A
C2020      H2025   1.082       .  S
C2021      C2022   1.431       .  A
C2022      N2023   1.431       .  S
N2023      H2027   1.045       .  S
N2023      H2028   1.046       .  S
N2026      H2029   1.038       .  S
N2026      H2030   1.038       .  S
C2031      C2032   1.413       .  A
C2031      C2036   1.435       .  A
C2031      H2038   1.082       .  S
C2032      C2033   1.421       .  A
C2033      C2034   1.394       .  A
C2033      N2040   1.431       .  S
C2034      C2035   1.413       .  A
C2034      H2039   1.060       .  S
C2035      C2036   1.439       .  A
C2036      N2037   1.437       .  S
N2037      H2041   1.041       .  S
N2037      H2042   1.045       .  S
N2040      H2043   1.041       .  S
N2040      H2044   1.045       .  S
C2045      C2046   1.392       .  A
C2045      C2050   1.409       .  A
C2045      H2052   1.063       .  S
C2046      C2047   1.430       .  A
C2047      C2048   1.423       .  A
C2047      N2054   1.432       .  S
C2048      C2049   1.415       .  A
C2048      H2053   1.084       .  S
C2049      C2050   1.436       .  A
C2050      N2051   1.429       .  S
N2051      H2055   1.038       .  S
N2051      H2056   1.044       .  S
N2054      H2057   1.046       .  S
N2054      H2058   1.045       .  S
C2059      C2060   1.394       .  A
C2059      C2064   1.401       .  A
C2059      H2066   1.084       .  S
C2060      C2061   1.417       .  A
C2061      C2062   1.420       .  A
C2061      N2068   1.438       .  S
C2062      C2063   1.417       .  A
C2062      H2067   1.078       .  S
C2063      C2064   1.435       .  A
C2064      N2065   1.431       .  S
N2065      H2069   1.046       .  S
N2065      H2070   1.046       .  S
N2068      H2071   1.046       .  S
N2068      H2072   1.046       .  S
C2073      C2074   1.419       .  A
C2073      C2078   1.397       .  A
C2073      H2080   1.081       .  S
C2074      C2075   1.418       .  A
C2075      C2076   1.418       .  A
C2075      N2082   1.430       .  S
C2076      C2077   1.413       .  A
C2076      H2081   1.083       .  S
C2077      C2078   1.409       .  A
C2078      N2079   1.433       .  S
N2079      H2083   1.045       .  S
N2079      H2084   1.045       .  S
N2082      H2085   1.046       .  S
N2082      H2086   1.045       .  S
C2087      C2088   1.420       .  A
C2087      C2092   1.402       .  A
C2087      H2094   1.067       .  S
C2088      C2089   1.415       .  A
C2089      C2090   1.433       .  A
C2089      N2096   1.442       .  S
C2090      C2091   1.433       .  A
C2090      H2095   1.051       .  S
C2091      C2092   1.431       .  A
C2092      N2093   1.423       .  S
N2093      H2097   1.044       .  S
N2093      H2098   1.046       .  S
N2096      H2099   1.043       .  S
N2096      H2100   1.045       .  S
C2101      C2102   1.403       .  A
C2101      C2106   1.386       .  A
C2101      H2108   1.047       .  S
C2102      C2103   1.451       .  A
C2103      C2104   1.426       .  A
C2103      N2110   1.432       .  S
C2104      C2105   1.405       .  A
C2104      H2109   1.080       .  S
C2105      C2106   1.421       .  A
C2106      N2107   1.437       .  S
N2107      H2111   1.043       .  S
N2107      H2112   1.033       .  S
N2110      H2113   1.046       .  S
N2110      H2114   1.046       .  S
C2115      C2116   1.426       .  A
C2115      C2120   1.437       .  A
C2115      H2122   1.082       .  S
C2116      C2117   1.392       .  A
C2117      C2118   1.378       .  A
C2117      N2124   1.402       .  S
C2118      C2119   1.400       .  A
C2118      H2123   1.066       .  S
C2119      C2120   1.447       .  A
C2120      N2121   1.435       .  S
N2121      H2125   1.045       .  S
N2121      H2126   1.045       .  S
N2124      H2127   1.042       .  S
N2124      H2128   1.030       .  S
C2129      C2130   1.420       .  A
C2129      C2134   1.407       .  A
C2129      H2136   1.084       .  S
C2130      C2131   1.420       .  A
C2131      C2132   1.407       .  A
C2131      N2138   1.431       .  S
C2132      C2133   1.407       .  A
C2132      H2137   1.084       .  S
C2133      C2134   1.410       .  A
C2134      N2135   1.437       .  S
N2135      H2139   1.046       .  S
N2135      H2140   1.045       .  S
N2138      H2141   1.045       .  S
N2138      H2142   1.046       .  S
C2143      C2144   1.407       .  A
C2143      C2148   1.392       .  A
C2143      H2150   1.077       .  S
C2144      C2145   1.438       .  A
C2145      C2146   1.417       .  A
C2145      N2152   1.436       .  S
C2146      C2147   1.415       .  A
C2146      H2151   1.083       .  S
C2147      C2148   1.415       .  A
C2148      N2149   1.425       .  S
N2149      H2153   1.041       .  S
N2149      H2154   1.046       .  S
N2152      H2155   1.035       .  S
N2152      H2156   1.046       .  S
C2157      C2158   1.420       .  A
C2157      C2162   1.398       .  A
C2157      H2164   1.078       .  S
C2158      C2159   1.423       .  A
C2159      C2160   1.415       .  A
C2159      N2166   1.430       .  S
C2160      C2161   1.410       .  A
C2160      H2165   1.083       .  S
C2161      C2162   1.411       .  A
C2162      N2163   1.433       .  S
N2163      H2167   1.045       .  S
N2163      H2168   1.045       .  S
N2166      H2169   1.045       .  S
N2166      H2170   1.046       .  S
C2171      C2172   1.406       .  A
C2171      C2176   1.399       .  A
C2171      H2178   1.068       .  S
C2172      C2173   1.419       .  A
C2173      C2174   1.428       .  A
C2173      N2180   1.432       .  S
C2174      C2175   1.439       .  A
C2174      H2179   1.062       .  S
C2175      C2176   1.436       .  A
C2176      N2177   1.421       .  S
N2177      H2181   1.046       .  S
N2177      H2182   1.040       .  S
N2180      H2183   1.046       .  S
N2180      H2184   1.045       .  S
C2185      C2186   1.405       .  A
C2185      C2190   1.415       .  A
C2185      H2192   1.084       .  S
C2186      C2187   1.411       .  A
C2187      C2188   1.421       .  A
C2187      N2194   1.435       .  S
C2188      C2189   1.424       .  A
C2188      H2193   1.061       .  S
C2189      C2190   1.444       .  A
C2190      N2191   1.427       .  S
N2191      H2195   1.046       .  S
N2191      H2196   1.043       .  S
N2194      H2197   1.045       .  S
N2194      H2198   1.045       .  S
C2199      C2200   1.429       .  A
C2199      C2204   1.417       .  A
C2199      H2206   1.078       .  S
C2200      C2201   1.435       .  A
C2201      C2202   1.398       .  A
C2201      N2208   1.439       .  S
C2202      C2203   1.400       .  A
C2202      H2207   1.081       .  S
C2203      C2204   1.418       .  A
C2204      N2205   1.432       .  S
N2205      H2209   1.046       .  S
N2205      H2210   1.046       .  S
N2208      H2211   1.034       .  S
N2208      H2212   1.045       .  S
C2213      C2214   1.426       .  A
C2213      C2218   1.395       .  A
C2213      H2220   1.069       .  S
C2214      C2215   1.429       .  A
C2215      C2216   1.419       .  A
C2215      N2222   1.425       .  S
C2216      C2217   1.407       .  A
C2216      H2221   1.084       .  S
C2217      C2218   1.403       .  A
C2218      N2219   1.434       .  S
N2219      H2223   1.046       .  S
N2219      H2224   1.044       .  S
N2222      H2225   1.046       .  S
N2222      H2226   1.046       .  S
C2227      C2228   1.403       .  A
C2227      C2232   1.413       .  A
C2227      H2234   1.075       .  S
C2228      C2229   1.438       .  A
C2229      C2230   1.429       .  A
C2229      N2236   1.436       .  S
C2230      C2231   1.423       .  A
C2230      H2235   1.074       .  S
C2231      C2232   1.433       .  A
C2232      N2233   1.436       .  S
N2233      H2237   1.044       .  S
N2233      H2238   1.045       .  S
N2236      H2239   1.045       .  S
N2236      H2240   1.045       .  S
