geometry optimzed in LAMMPS
_audit_creation_date              2020-11-30 
_audit_creation_method            'lammps2cif' 
_symmetry_space_group_name_H-M    'P1' 
_symmetry_Int_Tables_number       1 
_symmetry_cell_setting            triclinic 
loop_ 
_symmetry_equiv_pos_as_xyz 
  x,y,z 
_cell_length_a                    40.75245544 
_cell_length_b                    41.14552658241896 
_cell_length_c                    30.152346513000907 
_cell_angle_alpha                 90.2600087017883 
_cell_angle_beta                  90.26757910712809 
_cell_angle_gamma                 90.599360979061 
loop_ 
_atom_site_label 
_atom_site_type_symbol 
_atom_site_fract_x 
_atom_site_fract_y 
_atom_site_fract_z 
_atom_site_charge 
C1          C  0.45809849  0.23316253  0.30626925     0.04300
C2          C  0.45403971  0.26667827  0.29760001    -0.11900
C3          C  0.47443377  0.28298252  0.26731006     0.01800
C4          C  0.49590226  0.26533700  0.24082665    -0.10400
C5          C  0.49930820  0.23191871  0.24682386     0.04300
C6          C  0.48197242  0.21644512  0.28115338    -0.09800
H7          H  0.43575577  0.28062037  0.31494801     0.09900
H8          H  0.51049979  0.27782493  0.21608880     0.07400
H9          H  0.48732974  0.19125274  0.28783448     0.07200
O10         O  0.45034637  0.49128413  0.22549498    -0.71800
O11         O  0.54790133  0.48435423  0.23570727    -0.72800
O12         O  0.49454384  0.43885052  0.22882616    -0.61400
O13         O  0.50305303  0.53642212  0.23303011    -0.69800
O14         O  0.49829719  0.53540291  0.30630219    -0.69400
O15         O  0.49117015  0.43849716  0.30220196    -0.60600
O16         O  0.54435536  0.48454595  0.30915297    -0.73100
O17         O  0.44592252  0.48989225  0.29880707    -0.71900
Cu18       Cu  0.49916143  0.48770666  0.22820945     1.04600
Cu19       Cu  0.49485434  0.48695042  0.30667370     1.04300
C20         C  0.43271342  0.49167128  0.26037096     0.94400
C21         C  0.56164589  0.48423599  0.27385436     0.93500
C22         C  0.49103232  0.42330784  0.26515343     0.85700
C23         C  0.50169991  0.55127277  0.27032825     0.92000
C24         C  0.75670269  0.46878888  0.29076288     0.04300
C25         C  0.77071876  0.48406715  0.25355910    -0.11900
C26         C  0.75252984  0.50581493  0.22700128     0.01800
C27         C  0.71896551  0.50988902  0.23737816    -0.10400
C28         C  0.70394290  0.49167486  0.27119775     0.04300
C29         C  0.72313149  0.47231687  0.29883719    -0.09800
H30         H  0.79595751  0.47874458  0.24562803     0.09900
H31         H  0.70399062  0.52649280  0.21858203     0.07400
H32         H  0.71170971  0.45941379  0.32606267     0.07200
C33         C  0.53342371  0.74258133  0.29642517     0.04300
C34         C  0.51778579  0.75860342  0.26083993    -0.11900
C35         C  0.49439268  0.74213877  0.23360398     0.01800
C36         C  0.48899205  0.70875394  0.24191935    -0.10400
C37         C  0.50811463  0.69192956  0.27262394     0.04300
C38         C  0.52926820  0.70897732  0.30096101    -0.09800
H39         H  0.52389174  0.78384792  0.25527703     0.09900
H40         H  0.47030858  0.69519232  0.22393217     0.07400
H41         H  0.54211861  0.69607345  0.32692518     0.07200
C42         C  0.24231449  0.53024568  0.25871930     0.04300
C43         C  0.22600999  0.51545668  0.22226366    -0.11900
C44         C  0.24185743  0.49170827  0.19597341     0.01800
C45         C  0.27475091  0.48431164  0.20656537    -0.10400
C46         C  0.29191892  0.50165866  0.23939807     0.04300
C47         C  0.27546500  0.52372489  0.26619009    -0.09800
H48         H  0.20110302  0.52253410  0.21495560     0.09900
H49         H  0.28759991  0.46556137  0.18854496     0.07400
H50         H  0.28853773  0.53568392  0.29319055     0.07200
C51         C  0.48095092  0.73480836  0.78506068     0.04300
C52         C  0.49600607  0.75567434  0.75401051    -0.11900
C53         C  0.51520392  0.74323190  0.71941867     0.01800
C54         C  0.51739648  0.70947781  0.71362793    -0.10400
C55         C  0.50169580  0.68824157  0.74307887     0.04300
C56         C  0.48437611  0.70093897  0.77937014    -0.09800
H57         H  0.49355637  0.78175971  0.75733664     0.09900
H58         H  0.53171899  0.69973100  0.68653822     0.07400
H59         H  0.47374823  0.68433580  0.80323023     0.07200
O60         O  0.50750365  0.53151257  0.69158274    -0.71800
O61         O  0.50627341  0.43342318  0.69594278    -0.72800
O62         O  0.45735330  0.48238501  0.68784217    -0.61400
O63         O  0.55587290  0.48186414  0.69902301    -0.69800
O64         O  0.55197158  0.48247789  0.77240611    -0.69400
O65         O  0.45346006  0.48564644  0.76105799    -0.60600
O66         O  0.50105650  0.43585305  0.76912175    -0.73100
O67         O  0.50494442  0.53290314  0.76505334    -0.71900
Cu68       Cu  0.50686474  0.48227033  0.69099908     1.04600
Cu69       Cu  0.50265538  0.48434254  0.76940589     1.04300
C70         C  0.50672776  0.54764543  0.72794589     0.94400
C71         C  0.50374596  0.41928209  0.73346402     0.93500
C72         C  0.43980719  0.48439015  0.72275975     0.85700
C73         C  0.56941067  0.48118142  0.73732602     0.92000
C74         C  0.24537580  0.47855420  0.75087458     0.04300
C75         C  0.27910924  0.47280900  0.74381631    -0.11900
C76         C  0.29712674  0.49081299  0.71272930     0.01800
C77         C  0.28067619  0.51191513  0.68409723    -0.10400
C78         C  0.24670050  0.51641263  0.68809482     0.04300
C79         C  0.22962889  0.50103304  0.72285388    -0.09800
H80         H  0.29196773  0.45521871  0.76385642     0.09900
H81         H  0.29432952  0.52492781  0.65891361     0.07400
H82         H  0.20413056  0.50699081  0.72788306     0.07200
C83         C  0.51332872  0.23285959  0.79754479     0.04300
C84         C  0.52175074  0.26446932  0.78336106    -0.11900
C85         C  0.50491096  0.27907716  0.74827587     0.01800
C86         C  0.48316396  0.26068369  0.72223331    -0.10400
C87         C  0.47614889  0.22836369  0.73311554     0.04300
C88         C  0.48980801  0.21519064  0.77208423    -0.09800
H89         H  0.54020325  0.27866984  0.80088071     0.09900
H90         H  0.47125308  0.27178401  0.69396667     0.07400
H91         H  0.48191798  0.19116845  0.78215866     0.07200
C92         C  0.76184138  0.48268350  0.78573243     0.04300
C93         C  0.77956731  0.46706855  0.75196861    -0.11900
C94         C  0.76341826  0.45200751  0.71582630     0.01800
C95         C  0.72893699  0.45345137  0.71346134    -0.10400
C96         C  0.71094124  0.46781298  0.74779198     0.04300
C97         C  0.72741649  0.48150830  0.78425244    -0.09800
H98         H  0.80610527  0.46708091  0.75347867     0.09900
H99         H  0.71603896  0.44345402  0.68492386     0.07400
H100        H  0.71331215  0.49250548  0.81063938     0.07200
C101        C  0.97629490  0.72355509  0.77838156     0.04300
C102        C  0.97584919  0.75774315  0.77986271    -0.11900
C103        C  0.98735319  0.77633560  0.74427721     0.01800
C104        C  0.00080657  0.76061122  0.70719684    -0.10400
C105        C  0.00435734  0.72646496  0.70617415     0.04300
C106        C  0.99140966  0.70822622  0.74185079    -0.09800
H107        H  0.96587814  0.77005505  0.80856663     0.09900
H108        H  0.00928770  0.77515851  0.67959477     0.07400
H109        H  0.99312915  0.68201852  0.74128852     0.07200
O110        O  0.94079691  0.98797871  0.78629802    -0.71800
O111        O  0.03823895  0.97786815  0.78842332    -0.72800
O112        O  0.99446733  0.03223223  0.78538084    -0.61400
O113        O  0.98470569  0.93396648  0.78834847    -0.69800
O114        O  0.98394625  0.93284805  0.71478313    -0.69400
O115        O  0.99615630  0.03046071  0.71190818    -0.60600
O116        O  0.03925319  0.97571844  0.71509565    -0.73100
O117        O  0.94076805  0.98769024  0.71275013    -0.71900
Cu118      Cu  0.98949507  0.98308037  0.78959028     1.04600
Cu119      Cu  0.99000921  0.98161932  0.71104064     1.04300
C120        C  0.92535813  0.99004376  0.74950457     0.94400
C121        C  0.05427941  0.97455632  0.75244675     0.93500
C122        C  0.99666600  0.04682554  0.74806459     0.85700
C123        C  0.98343018  0.91793417  0.75189095     0.92000
C124        C  0.24782111  0.94319764  0.79322913     0.04300
C125        C  0.26403636  0.96603990  0.76585152    -0.11900
C126        C  0.24714137  0.98278874  0.73231903     0.01800
C127        C  0.21311658  0.97893017  0.72849544    -0.10400
C128        C  0.19607168  0.95817379  0.75699223     0.04300
C129        C  0.21352588  0.93902696  0.78738946    -0.09800
H130        H  0.28993970  0.97111882  0.77046675     0.09900
H131        H  0.19968750  0.99269367  0.70393466     0.07400
H132        H  0.20000284  0.92152575  0.80697004     0.07200
C133        C  0.03899495  0.23639111  0.76785536     0.04300
C134        C  0.03159519  0.20313871  0.77118842    -0.11900
C135        C  0.00879168  0.18843342  0.74231248     0.01800
C136        C  0.99175174  0.20782374  0.71172529    -0.10400
C137        C  0.00027001  0.24102571  0.70546455     0.04300
C138        C  0.02482176  0.25456481  0.73340096    -0.09800
H139        H  0.04349916  0.18866004  0.79639253     0.09900
H140        H  0.97251649  0.19654048  0.69195804     0.07400
H141        H  0.03312906  0.27936217  0.72888897     0.07200
C142        C  0.73621562  0.03446715  0.79575864     0.04300
C143        C  0.77053629  0.03588329  0.78853428    -0.11900
C144        C  0.78547225  0.01500135  0.75782580     0.01800
C145        C  0.76600888  0.99560114  0.72996129    -0.10400
C146        C  0.73191261  0.99500862  0.73441971     0.04300
C147        C  0.71734787  0.01297831  0.76869176    -0.09800
H148        H  0.78601061  0.05249572  0.80727656     0.09900
H149        H  0.77754603  0.98022478  0.70537618     0.07400
H150        H  0.69130695  0.00978247  0.77421474     0.07200
C151        C  0.99746530  0.25789559  0.25814965     0.04300
C152        C  0.02131463  0.27209492  0.22998875    -0.11900
C153        C  0.03492913  0.25431798  0.19446836     0.01800
C154        C  0.02648606  0.22137888  0.18919464    -0.10400
C155        C  0.00438190  0.20640887  0.21806742     0.04300
C156        C  0.98830896  0.22514819  0.25005910    -0.09800
H157        H  0.02999704  0.29666617  0.23596481     0.09900
H158        H  0.03810251  0.20699025  0.16360993     0.07400
H159        H  0.96981785  0.21339915  0.27024628     0.07200
O160        O  0.04960345  0.00145271  0.19186880    -0.71800
O161        O  0.94998358  0.99759253  0.19410122    -0.72800
O162        O  0.99850745  0.04855470  0.19041690    -0.61400
O163        O  0.00105223  0.95125144  0.19379533    -0.69800
O164        O  0.00109186  0.95264287  0.26742777    -0.69400
O165        O  0.00031678  0.05052366  0.26386193    -0.60600
O166        O  0.95193185  0.00004508  0.26751456    -0.73100
O167        O  0.04987701  0.00207182  0.26550018    -0.71900
Cu168      Cu  0.99976012  0.99977517  0.18993219     1.04600
Cu169      Cu  0.00087190  0.00151153  0.26857297     1.04300
C170        C  0.06528622  0.00142527  0.22876915     0.94400
C171        C  0.93535038  0.99771252  0.23162452     0.93500
C172        C  0.99930538  0.06503020  0.22640195     0.85700
C173        C  0.00088119  0.93660000  0.23100193     0.92000
C174        C  0.74457555  0.97461194  0.29113924     0.04300
C175        C  0.77749586  0.96818075  0.27912218    -0.11900
C176        C  0.79339607  0.98652139  0.24625607     0.01800
C177        C  0.77521337  0.00751150  0.21977602    -0.10400
C178        C  0.74201036  0.01248003  0.22843038     0.04300
C179        C  0.72767830  0.99814302  0.26595879    -0.09800
H180        H  0.79148954  0.94975295  0.29593179     0.09900
H181        H  0.78706116  0.02033063  0.19279815     0.07400
H182        H  0.70322062  0.00556364  0.27481600     0.07200
C183        C  0.01028557  0.74425702  0.26202622     0.04300
C184        C  0.01419769  0.77802211  0.25736218    -0.11900
C185        C  0.99209225  0.79594672  0.23193590     0.01800
C186        C  0.96718025  0.77991301  0.20790011    -0.10400
C187        C  0.96561817  0.74573314  0.20615329     0.04300
C188        C  0.98701465  0.72832301  0.23442007    -0.09800
H189        H  0.03354243  0.79079906  0.27524111     0.09900
H190        H  0.94931620  0.79434698  0.19039410     0.07400
H191        H  0.98522806  0.70218556  0.23546227     0.07200
C192        C  0.25564684  0.99909392  0.28934485     0.04300
C193        C  0.27210845  0.97637741  0.26177384    -0.11900
C194        C  0.25738208  0.96405264  0.22235105     0.01800
C195        C  0.22469717  0.97218974  0.21294043    -0.10400
C196        C  0.20733451  0.99296375  0.24101766     0.04300
C197        C  0.22344082  0.00782621  0.27701050    -0.09800
H198        H  0.29623081  0.96785504  0.27071772     0.09900
H199        H  0.21243715  0.96190329  0.18408452     0.07400
H200        H  0.21005755  0.02544772  0.29637399     0.07200
N201        N  0.15499054  0.35790183  0.04546216    -0.35500
N202        N  0.12959061  0.31076946  0.98122204    -0.56000
N203        N  0.15181164  0.35367748  0.91061128    -0.35500
N204        N  0.17963893  0.39883289  0.97528105    -0.56000
C205        C  0.14727367  0.33274696  0.07224753     0.28100
C206        C  0.17502245  0.37822582  0.06869039     0.28100
C207        C  0.14280737  0.32691527  0.88706159     0.28100
C208        C  0.17170587  0.37195924  0.88454510     0.28100
C209        C  0.11541087  0.29894722  0.01842834     0.36700
C210        C  0.11370386  0.29651826  0.94658255     0.36700
C211        C  0.18296477  0.41952531  0.01000989     0.36700
C212        C  0.18193868  0.41693971  0.93813236     0.36700
C213        C  0.16260014  0.33697069  0.11300289    -0.20700
C214        C  0.18064739  0.36537662  0.11049180    -0.20700
C215        C  0.15691724  0.32831926  0.84535129    -0.20700
C216        C  0.17583538  0.35621617  0.84420702    -0.20700
C217        C  0.09152412  0.27605622  0.00740307    -0.21800
C218        C  0.09055074  0.27439615  0.96194696    -0.21800
C219        C  0.18726544  0.45102909  0.99489139    -0.21800
C220        C  0.18659941  0.44939677  0.94930839    -0.21800
C221        C  0.12369383  0.30840165  0.06235286    -0.17200
C222        C  0.18497170  0.40970868  0.05488188    -0.17200
C223        C  0.18325601  0.40391186  0.89459855    -0.17100
C224        C  0.12004783  0.30285683  0.90120251    -0.17100
H225        H  0.16048837  0.32158709  0.14186481     0.15800
H226        H  0.19502608  0.37609378  0.13715615     0.15800
H227        H  0.15380610  0.31130239  0.81821244     0.15800
H228        H  0.18988703  0.36459570  0.81604911     0.15800
H229        H  0.07627752  0.26208183  0.02977328     0.14000
H230        H  0.07439261  0.25885441  0.94248724     0.14000
H231        H  0.19110940  0.47278916  0.01461469     0.14000
H232        H  0.18987456  0.46965906  0.92694310     0.14000
H233        H  0.14309274  0.36329393  0.01583596     0.27300
H234        H  0.14127630  0.36105754  0.94031211     0.27300
N235        N  0.62020075  0.12564343  0.09475386    -0.35500
N236        N  0.65915724  0.09898166  0.02201007    -0.56000
N237        N  0.62342424  0.13899409  0.96105584    -0.35500
N238        N  0.58572174  0.16769512  0.03291772    -0.56000
C239        C  0.64186635  0.10775343  0.11823571     0.28100
C240        C  0.60279611  0.14355396  0.12405374     0.28100
C241        C  0.64960206  0.13020144  0.93631026     0.28100
C242        C  0.61030447  0.16555007  0.94191213     0.28100
C243        C  0.66826945  0.07862195  0.05476580     0.36700
C244        C  0.66804893  0.08496652  0.98324154     0.36700
C245        C  0.56783795  0.17377307  0.06962686     0.36700
C246        C  0.56843657  0.17908118  0.99793368     0.36700
C247        C  0.63748548  0.11372373  0.16314868    -0.20700
C248        C  0.61284332  0.13605456  0.16680252    -0.20700
C249        C  0.65363990  0.15202333  0.90179224    -0.20700
C250        C  0.62850692  0.17404436  0.90494637    -0.20700
C251        C  0.68350252  0.05168455  0.03665303    -0.21800
C252        C  0.68210770  0.05505404  0.99141843    -0.21800
C253        C  0.53948868  0.19015459  0.05778027    -0.21800
C254        C  0.53939207  0.19253578  0.01236467    -0.21800
C255        C  0.66412171  0.08465963  0.10075804    -0.17200
C256        C  0.57699180  0.16528377  0.11365699    -0.17200
C257        C  0.58003077  0.17962588  0.95378481    -0.17100
C258        C  0.66737189  0.10097137  0.94162930    -0.17100
H259        H  0.65011859  0.10259061  0.19072512     0.15800
H260        H  0.60315091  0.14525107  0.19769496     0.15800
H261        H  0.67193353  0.15129314  0.87591631     0.15800
H262        H  0.62365288  0.19363694  0.88207479     0.15800
H263        H  0.69445047  0.03150376  0.05388228     0.14000
H264        H  0.69182088  0.03804654  0.96750348     0.14000
H265        H  0.52048894  0.19927674  0.07924807     0.14000
H266        H  0.52050784  0.20378396  0.99252042     0.14000
H267        H  0.61588840  0.12387110  0.06099716     0.27300
H268        H  0.61206972  0.12489449  0.98526138     0.27300
N269        N  0.85726640  0.61726934  0.06508723    -0.35500
N270        N  0.89723638  0.64919240  0.99830984    -0.56000
N271        N  0.87224769  0.60371938  0.93203699    -0.35500
N272        N  0.83046898  0.57326644  0.99915090    -0.56000
C273        C  0.86566415  0.64556872  0.08554393     0.28100
C274        C  0.83056264  0.60503288  0.08609139     0.28100
C275        C  0.88769201  0.62554876  0.90554663     0.28100
C276        C  0.85240950  0.58514963  0.90590022     0.28100
C277        C  0.91113388  0.66149118  0.03570788     0.36700
C278        C  0.91802071  0.65591719  0.96460626     0.36700
C279        C  0.81887523  0.55859553  0.03605782     0.36700
C280        C  0.82549668  0.55216975  0.96528249     0.36700
C281        C  0.84351016  0.65173892  0.11929177    -0.20700
C282        C  0.82163248  0.62592116  0.12000721    -0.20700
C283        C  0.87828424  0.62009377  0.86187156    -0.20700
C284        C  0.85619961  0.59459886  0.86206029    -0.20700
C285        C  0.94136895  0.67542010  0.02570013    -0.21800
C286        C  0.94526349  0.67269379  0.98054067    -0.21800
C287        C  0.80689287  0.52786298  0.02571413    -0.21800
C288        C  0.81022286  0.52415532  0.98074423    -0.21800
C289        C  0.89475193  0.66386594  0.07715996    -0.17200
C290        C  0.81613613  0.57404848  0.07782882    -0.17200
C291        C  0.83203378  0.55901098  0.92019279    -0.17100
C292        C  0.91143290  0.64902389  0.91936926    -0.17100
H293        H  0.84378709  0.67215615  0.14204738     0.15800
H294        H  0.80171926  0.62261245  0.14323387     0.15800
H295        H  0.88676738  0.63280417  0.83268136     0.15800
H296        H  0.84452775  0.58408969  0.83297898     0.15800
H297        H  0.95832537  0.68747309  0.04823153     0.14000
H298        H  0.96580648  0.68201525  0.96170445     0.14000
H299        H  0.79574343  0.51036305  0.04783757     0.14000
H300        H  0.80199878  0.50321365  0.96180754     0.14000
H301        H  0.87163898  0.60478827  0.04231961     0.27300
H302        H  0.87706210  0.59981249  0.96541967     0.27300
N303        N  0.37037857  0.84256787  0.08037524    -0.35500
N304        N  0.40276942  0.80223182  0.01317061    -0.56000
N305        N  0.36598943  0.83499385  0.94539090    -0.35500
N306        N  0.33282830  0.87414265  0.01252366    -0.56000
C307        C  0.38398740  0.81895979  0.10536684     0.28100
C308        C  0.34689302  0.85708055  0.10513518     0.28100
C309        C  0.37861764  0.81010397  0.92148866     0.28100
C310        C  0.34025437  0.84697179  0.92225592     0.28100
C311        C  0.42215200  0.79673700  0.04892391     0.36700
C312        C  0.41944442  0.79175499  0.97707253     0.36700
C313        C  0.32630010  0.89407448  0.04715082     0.36700
C314        C  0.32500420  0.89051911  0.97524733     0.36700
C315        C  0.36863099  0.81812014  0.14633695    -0.20700
C316        C  0.34558267  0.84244289  0.14640879    -0.20700
C317        C  0.36068342  0.80645090  0.88249897    -0.20700
C318        C  0.33590380  0.82888207  0.88372854    -0.20700
C319        C  0.45131977  0.78282767  0.03529761    -0.21800
C320        C  0.44915088  0.77873548  0.99017734    -0.21800
C321        C  0.31414732  0.92328351  0.03177997    -0.21800
C322        C  0.31403921  0.92131328  0.98623215    -0.21800
C323        C  0.41240704  0.80106479  0.09383956    -0.17200
C324        C  0.32873710  0.88481099  0.09224059    -0.17200
C325        C  0.32364243  0.87632547  0.93229597    -0.17100
C326        C  0.40751132  0.79280065  0.93271587    -0.17100
H327        H  0.37435724  0.80244435  0.17397748     0.15800
H328        H  0.33014245  0.84894120  0.17408064     0.15800
H329        H  0.36506701  0.79000080  0.85521613     0.15800
H330        H  0.31789880  0.83264638  0.85781376     0.15800
H331        H  0.47177316  0.77545042  0.05576717     0.14000
H332        H  0.46752551  0.76749173  0.96957845     0.14000
H333        H  0.30581546  0.94375351  0.05115802     0.14000
H334        H  0.30549969  0.93992484  0.96384896     0.14000
H335        H  0.37970657  0.85106814  0.05047440     0.27300
H336        H  0.37713136  0.84613970  0.97267851     0.27300
N337        N  0.12612864  0.62860114  0.54789709    -0.35500
N338        N  0.17114057  0.60684277  0.47886879    -0.56000
N339        N  0.12996308  0.63824301  0.41249302    -0.35500
N340        N  0.08699731  0.66266725  0.48130718    -0.56000
C341        C  0.14966448  0.61494552  0.57353482     0.28100
C342        C  0.10611796  0.64579245  0.57491983     0.28100
C343        C  0.15612879  0.62993088  0.38754991     0.28100
C344        C  0.11318379  0.66111009  0.38978705     0.28100
C345        C  0.18405278  0.59035497  0.51347373     0.36700
C346        C  0.18540825  0.59495808  0.44178752     0.36700
C347        C  0.06763578  0.66731633  0.51712227     0.36700
C348        C  0.06917594  0.67087820  0.44506206     0.36700
C349        C  0.14396785  0.62284718  0.61756869    -0.20700
C350        C  0.11678056  0.64238138  0.61841945    -0.20700
C351        C  0.15581601  0.64746826  0.34843040    -0.20700
C352        C  0.12944090  0.66786170  0.35050164    -0.20700
C353        C  0.20764170  0.56896676  0.49831676    -0.21800
C354        C  0.20833629  0.57173087  0.45301941    -0.21800
C355        C  0.03737968  0.67881500  0.50351541    -0.21800
C356        C  0.03804692  0.68021994  0.45796421    -0.21800
C357        C  0.17527408  0.59434892  0.55871237    -0.17200
C358        C  0.07753326  0.66315963  0.56200775    -0.17200
C359        C  0.08193434  0.67352309  0.40132507    -0.17100
C360        C  0.17879740  0.60526307  0.39785577    -0.17100
H361        H  0.15780321  0.61525346  0.64634762     0.15800
H362        H  0.10579732  0.65239083  0.64801791     0.15800
H363        H  0.17254972  0.64580523  0.32085832     0.15800
H364        H  0.12233770  0.68477742  0.32491137     0.15800
H365        H  0.22271031  0.55282000  0.51775804     0.14000
H366        H  0.22412346  0.55829987  0.43091937     0.14000
H367        H  0.01688123  0.68560153  0.52410582     0.14000
H368        H  0.01825501  0.68846324  0.43692820     0.14000
H369        H  0.12228269  0.62405363  0.51450464     0.27300
H370        H  0.12164269  0.62565746  0.44009039     0.27300
N371        N  0.35815664  0.10787179  0.59338856    -0.35500
N372        N  0.38710730  0.15004941  0.52644456    -0.56000
N373        N  0.34990656  0.11508644  0.45845067    -0.35500
N374        N  0.31882592  0.07466124  0.52479882    -0.56000
C375        C  0.37457576  0.12932254  0.61981476     0.28100
C376        C  0.33747806  0.09049679  0.61939468     0.28100
C377        C  0.36008794  0.14174002  0.43583074     0.28100
C378        C  0.32561600  0.10055326  0.43442765     0.28100
C379        C  0.40699203  0.15752423  0.56112349     0.36700
C380        C  0.40208509  0.16161434  0.48972724     0.36700
C381        C  0.31156282  0.05566252  0.56001927     0.36700
C382        C  0.31010046  0.05757619  0.48794714     0.36700
C383        C  0.36475779  0.12502217  0.66335710    -0.20700
C384        C  0.34152320  0.10054252  0.66314143    -0.20700
C385        C  0.34165114  0.14439242  0.39723115    -0.20700
C386        C  0.32006756  0.11832512  0.39623161    -0.20700
C387        C  0.43448669  0.17432911  0.54636041    -0.21800
C388        C  0.43173612  0.17625839  0.50112568    -0.21800
C389        C  0.29724186  0.02678201  0.54524753    -0.21800
C390        C  0.29752887  0.02750158  0.49982002    -0.21800
C391        C  0.39965805  0.15122560  0.60615528    -0.17200
C392        C  0.31684124  0.06429517  0.60529438    -0.17200
C393        C  0.31077482  0.06998082  0.44412117    -0.17100
C394        C  0.38804959  0.16131375  0.44666736    -0.17100
H395        H  0.37384063  0.13770278  0.69251493     0.15800
H396        H  0.32957857  0.09085245  0.69225958     0.15800
H397        H  0.34426194  0.16260578  0.37167017     0.15800
H398        H  0.30276949  0.11265451  0.36989860     0.15800
H399        H  0.45453929  0.18426356  0.56592162     0.14000
H400        H  0.44929543  0.18781715  0.47932621     0.14000
H401        H  0.28770414  0.00687795  0.56473737     0.14000
H402        H  0.28845993  0.00835482  0.47818117     0.14000
H403        H  0.36314014  0.10316226  0.56033738     0.27300
H404        H  0.36208917  0.10470133  0.48514404     0.27300
N405        N  0.88354994  0.35167343  0.55836690    -0.35500
N406        N  0.84436808  0.38566308  0.49399054    -0.56000
N407        N  0.88482132  0.35921275  0.42318420    -0.35500
N408        N  0.92317726  0.32403471  0.48772096    -0.56000
C409        C  0.85819246  0.36114310  0.58411638     0.28100
C410        C  0.89924302  0.32755335  0.57997717     0.28100
C411        C  0.85917786  0.37083680  0.39961252     0.28100
C412        C  0.90069388  0.33772812  0.39689258     0.28100
C413        C  0.83244954  0.39952692  0.53131894     0.36700
C414        C  0.83275284  0.40312139  0.45953060     0.36700
C415        C  0.94190625  0.31696844  0.52348364     0.36700
C416        C  0.94257930  0.32108743  0.45164558     0.36700
C417        C  0.85793050  0.34292464  0.62269991    -0.20700
C418        C  0.88331439  0.32125632  0.61961455    -0.20700
C419        C  0.85897199  0.35684128  0.35767168    -0.20700
C420        C  0.88460976  0.33538925  0.35635079    -0.20700
C421        C  0.81277389  0.42560617  0.52044995    -0.21800
C422        C  0.81291013  0.42784913  0.47508243    -0.21800
C423        C  0.97352276  0.30977684  0.51013537    -0.21800
C424        C  0.97396635  0.31244289  0.46460239    -0.21800
C425        C  0.83693891  0.38733079  0.57477233    -0.17200
C426        C  0.92974085  0.31406187  0.56730014    -0.17200
C427        C  0.93103421  0.32277509  0.40724496    -0.17100
C428        C  0.83736612  0.39524037  0.41418472    -0.17100
H429        H  0.84159370  0.34517177  0.65065870     0.15800
H430        H  0.89015070  0.30383974  0.64471588     0.15800
H431        H  0.84232365  0.36164313  0.33051368     0.15800
H432        H  0.89128952  0.32062329  0.32807951     0.15800
H433        H  0.79899741  0.44094248  0.54270125     0.14000
H434        H  0.79920408  0.44525954  0.45586497     0.14000
H435        H  0.99391763  0.30269094  0.53093849     0.14000
H436        H  0.99474187  0.30774563  0.44337588     0.14000
H437        H  0.89233816  0.36396865  0.53073191     0.27300
H438        H  0.89331161  0.36848527  0.45331705     0.27300
N439        N  0.63191352  0.86640318  0.58582880    -0.35500
N440        N  0.66993562  0.90193079  0.51956481    -0.56000
N441        N  0.64080825  0.86043161  0.45071307    -0.35500
N442        N  0.60334942  0.82483093  0.51687519    -0.56000
C443        C  0.64251596  0.89204094  0.61060420     0.28100
C444        C  0.60781509  0.85125645  0.60905310     0.28100
C445        C  0.66319467  0.87686255  0.42612539     0.28100
C446        C  0.62710262  0.83720359  0.42421282     0.28100
C447        C  0.68041989  0.91842627  0.55600079     0.36700
C448        C  0.68470145  0.91577776  0.48409618     0.36700
C449        C  0.59047853  0.80977231  0.55260875     0.36700
C450        C  0.59470534  0.80674221  0.48109027     0.36700
C451        C  0.62508348  0.89298851  0.65000190    -0.20700
C452        C  0.60326550  0.86731200  0.64902457    -0.20700
C453        C  0.66384203  0.86357336  0.38372974    -0.20700
C454        C  0.64057054  0.83934220  0.38219104    -0.20700
C455        C  0.70260693  0.94244936  0.54360727    -0.21800
C456        C  0.70429006  0.94160780  0.49821741    -0.21800
C457        C  0.57416457  0.78154961  0.53950375    -0.21800
C458        C  0.57652609  0.77984122  0.49419616    -0.21800
C459        C  0.66816607  0.91419382  0.59971706    -0.17200
C460        C  0.59070721  0.82246550  0.59632998    -0.17200
C461        C  0.60307898  0.81375188  0.43661210    -0.17100
C462        C  0.68170379  0.90486162  0.43936351    -0.17100
H463        H  0.62778513  0.91042871  0.67678750     0.15800
H464        H  0.58603532  0.86111175  0.67493121     0.15800
H465        H  0.67908210  0.87094968  0.35618406     0.15800
H466        H  0.63475165  0.82475067  0.35325190     0.15800
H467        H  0.71538501  0.95977163  0.56472105     0.14000
H468        H  0.71871403  0.95811031  0.47822952     0.14000
H469        H  0.56123749  0.76431805  0.56025737     0.14000
H470        H  0.56631065  0.76076770  0.47332498     0.14000
H471        H  0.64288645  0.85770053  0.55718230     0.27300
H472        H  0.63301604  0.86677028  0.48216886     0.27300
C473        C  0.29666842  0.04985288  0.40609498    -0.04200
C474        C  0.31733134  0.03994561  0.37122484    -0.01300
C475        C  0.30442059  0.02431964  0.33291937     0.03700
C476        C  0.27100740  0.01398207  0.33113704    -0.04200
C477        C  0.25160538  0.01961335  0.36965413    -0.01300
C478        C  0.26340744  0.03969235  0.40476001     0.03700
C479        C  0.35250431  0.04436445  0.37573080     0.38300
C480        C  0.22018568  0.00316404  0.37496438     0.38300
C481        C  0.24114759  0.04965301  0.43957965     0.36700
C482        C  0.32632037  0.01969247  0.29585931     0.36700
N483        N  0.22342281  0.05734807  0.46751968    -0.38100
N484        N  0.34514073  0.01628125  0.26767775    -0.38100
N485        N  0.19525043  0.98989063  0.37950695    -0.37500
N486        N  0.38063564  0.04686929  0.37969445    -0.37500
C487        C  0.31094214  0.90449169  0.12696530    -0.04200
C488        C  0.28090129  0.89325259  0.14488849    -0.01300
C489        C  0.26417571  0.91180566  0.17732656     0.03700
C490        C  0.27613151  0.94297410  0.19028906    -0.04200
C491        C  0.30505339  0.95498412  0.16996775    -0.01300
C492        C  0.32318215  0.93526099  0.14048454     0.03700
C493        C  0.26681713  0.86277735  0.12916065     0.38300
C494        C  0.31424221  0.98888805  0.17528305     0.38300
C495        C  0.35418214  0.94705108  0.12306169     0.36700
C496        C  0.23434845  0.89881549  0.19677057     0.36700
N497        N  0.37892677  0.95642636  0.10914360    -0.38100
N498        N  0.21042391  0.88839891  0.21189115    -0.38100
N499        N  0.32105711  0.01619832  0.17793231    -0.37500
N500        N  0.25558233  0.83851366  0.11641538    -0.37500
C501        C  0.02913487  0.72615662  0.29745269    -0.04200
C502        C  0.03355992  0.73978950  0.34060019    -0.01300
C503        C  0.05297792  0.72390522  0.37262941     0.03700
C504        C  0.06260668  0.69132545  0.36601236    -0.04200
C505        C  0.05542720  0.67643625  0.32450359    -0.01300
C506        C  0.04207608  0.69480920  0.28933784     0.03700
C507        C  0.01714988  0.76949143  0.35349187     0.38300
C508        C  0.06205318  0.64219824  0.31755370     0.38300
C509        C  0.04394229  0.68204999  0.24449877     0.36700
C510        C  0.06356812  0.74158619  0.41203336     0.36700
N511        N  0.04581797  0.67201017  0.20868651    -0.38100
N512        N  0.07206405  0.75568158  0.44341832    -0.38100
N513        N  0.06728223  0.61489871  0.31191362    -0.37500
N514        N  0.00403549  0.79309303  0.36406007    -0.37500
C515        C  0.90817291  0.68692459  0.11240613    -0.04200
C516        C  0.91570932  0.71967544  0.10205373    -0.01300
C517        C  0.93565824  0.73864136  0.13100314     0.03700
C518        C  0.94215847  0.72783293  0.17503287    -0.04200
C519        C  0.92747061  0.69806496  0.18823405    -0.01300
C520        C  0.91443487  0.67632432  0.15623868     0.03700
C521        C  0.90319826  0.73379831  0.06136597     0.38300
C522        C  0.92405361  0.69031580  0.23490519     0.38300
C523        C  0.90908521  0.64277655  0.16871653     0.36700
C524        C  0.95051226  0.76809432  0.11365886     0.36700
N525        N  0.90526513  0.61610064  0.17956953    -0.38100
N526        N  0.96219024  0.79150352  0.09920782    -0.38100
N527        N  0.92100588  0.68441408  0.27216075    -0.37500
N528        N  0.89296704  0.74495512  0.02902547    -0.37500
C529        C  0.72827265  0.95744507  0.33007740    -0.04200
C530        C  0.69391238  0.95026320  0.33033800    -0.01300
C531        C  0.67884928  0.93739944  0.36859228     0.03700
C532        C  0.69808897  0.92418029  0.40300018    -0.04200
C533        C  0.73249013  0.92800113  0.40095310    -0.01300
C534        C  0.74679181  0.94794635  0.36808334     0.03700
C535        C  0.67343983  0.95388241  0.29128260     0.38300
C536        C  0.75335698  0.91109828  0.43220106     0.38300
C537        C  0.77972866  0.96039053  0.37602165     0.36700
C538        C  0.64325382  0.93667716  0.37180462     0.36700
N539        N  0.80591003  0.97046942  0.38278298    -0.38100
N540        N  0.61493131  0.93604456  0.37446806    -0.38100
N541        N  0.76998717  0.89744602  0.45696406    -0.37500
N542        N  0.65592105  0.95636220  0.26121047    -0.37500
C543        C  0.68447606  0.06588899  0.13314431    -0.04200
C544        C  0.71046500  0.08155816  0.15644497    -0.01300
C545        C  0.72828267  0.06466502  0.18915461     0.03700
C546        C  0.72178129  0.03137091  0.19662616    -0.04200
C547        C  0.69697525  0.01534155  0.17164780    -0.01300
C548        C  0.67731969  0.03288667  0.14178668     0.03700
C549        C  0.71872581  0.11518077  0.14686187     0.38300
C550        C  0.69320315  0.98031608  0.17421376     0.38300
C551        C  0.64999658  0.01681180  0.11943924     0.36700
C552        C  0.75304680  0.08160396  0.21543682     0.36700
N553        N  0.62838258  0.00395555  0.10126421    -0.38100
N554        N  0.77270802  0.09512111  0.23655790    -0.38100
N555        N  0.69065487  0.95229618  0.17539645    -0.37500
N556        N  0.72528550  0.14199480  0.13915487    -0.37500
C557        C  0.10167048  0.99912657  0.22977045    -0.04200
C558        C  0.12173096  0.02352852  0.21077310    -0.01300
C559        C  0.15633493  0.02182318  0.21450754     0.03700
C560        C  0.17100112  0.99545045  0.23658263    -0.04200
C561        C  0.15088970  0.97101609  0.25535789    -0.01300
C562        C  0.11644772  0.97273941  0.25178545     0.03700
C563        C  0.10671052  0.05074056  0.18837028     0.38300
C564        C  0.16570857  0.94429574  0.27921148     0.38300
C565        C  0.09620746  0.94677379  0.26983887     0.36700
C566        C  0.17686135  0.04736278  0.19623289     0.36700
N567        N  0.08014129  0.92597028  0.28406570    -0.38100
N568        N  0.19326070  0.06783003  0.18181389    -0.38100
N569        N  0.17754194  0.92309729  0.29841274    -0.37500
N570        N  0.09457767  0.07236270  0.17043472    -0.37500
C571        C  0.99924793  0.90061844  0.23180711    -0.04200
C572        C  0.97380082  0.88483000  0.25530579    -0.01300
C573        C  0.97168488  0.85062146  0.25567764     0.03700
C574        C  0.99453679  0.83198147  0.23176098    -0.04200
C575        C  0.01994109  0.84770555  0.20817102    -0.01300
C576        C  0.02226756  0.88194935  0.20807825     0.03700
C577        C  0.94884727  0.90383137  0.27741635     0.38300
C578        C  0.04357819  0.82856505  0.18380743     0.38300
C579        C  0.04866709  0.89790414  0.18414214     0.36700
C580        C  0.94630103  0.83455439  0.28135125     0.36700
N581        N  0.06973471  0.91060638  0.16504741    -0.38100
N582        N  0.92614125  0.82176630  0.30202519    -0.38100
N583        N  0.06242450  0.81319473  0.16451094    -0.37500
N584        N  0.92889629  0.91912226  0.29468186    -0.37500
C585        C  0.89885327  0.99483678  0.23440153    -0.04200
C586        C  0.88146973  0.01466119  0.26458767    -0.01300
C587        C  0.84716749  0.01128644  0.26878918     0.03700
C588        C  0.82981802  0.98773690  0.24355301    -0.04200
C589        C  0.84699526  0.96739258  0.21420344    -0.01300
C590        C  0.88137256  0.97105427  0.20930134     0.03700
C591        C  0.89868626  0.03912354  0.29091662     0.38300
C592        C  0.82923530  0.94245092  0.18956346     0.38300
C593        C  0.89878390  0.94950859  0.17960917     0.36700
C594        C  0.82951400  0.03238941  0.29893089     0.36700
N595        N  0.91264251  0.93229315  0.15589452    -0.38100
N596        N  0.81537308  0.04920509  0.32286534    -0.38100
N597        N  0.81497441  0.92243157  0.17020850    -0.37500
N598        N  0.91245078  0.05847177  0.31211447    -0.37500
C599        C  0.98318496  0.27600302  0.29753046    -0.04200
C600        C  0.97343859  0.30906909  0.29488918    -0.01300
C601        C  0.95972444  0.32502753  0.33214623     0.03700
C602        C  0.95059114  0.30720380  0.37028445    -0.04200
C603        C  0.95902742  0.27402767  0.37220032    -0.01300
C604        C  0.97795196  0.25969250  0.33842824     0.03700
C605        C  0.97560897  0.32689657  0.25372867     0.38300
C606        C  0.94658345  0.25365304  0.40749104     0.38300
C607        C  0.99274978  0.22842868  0.34724642     0.36700
C608        C  0.95427694  0.35983549  0.33065034     0.36700
N609        N  0.00427814  0.20351324  0.35509186    -0.38100
N610        N  0.94979910  0.38754582  0.32929329    -0.38100
N611        N  0.93638686  0.23677957  0.43481210    -0.37500
N612        N  0.97674102  0.34220919  0.22169763    -0.37500
C613        C  0.05896429  0.26964197  0.16324733    -0.04200
C614        C  0.09084050  0.25664924  0.15804462    -0.01300
C615        C  0.11234229  0.26928382  0.12553363     0.03700
C616        C  0.10276873  0.29592153  0.09939941    -0.04200
C617        C  0.07176172  0.31000550  0.10622906    -0.01300
C618        C  0.04946358  0.29610753  0.13648737     0.03700
C619        C  0.10142451  0.22995457  0.18572977     0.38300
C620        C  0.06260884  0.33860041  0.08115065     0.38300
C621        C  0.01583307  0.30717160  0.13656982     0.36700
C622        C  0.14417611  0.25475110  0.11869625     0.36700
N623        N  0.98894368  0.31583211  0.13487390    -0.38100
N624        N  0.16963075  0.24318112  0.11341969    -0.38100
N625        N  0.05570368  0.36152465  0.06121443    -0.37500
N626        N  0.10971152  0.20851029  0.20766180    -0.37500
C627        C  0.00242221  0.17026645  0.21987988    -0.04200
C628        C  0.98094611  0.15252838  0.19188459    -0.01300
C629        C  0.97933029  0.11821254  0.19452401     0.03700
C630        C  0.99990776  0.10131033  0.22448168    -0.04200
C631        C  0.02228799  0.11922447  0.25128224    -0.01300
C632        C  0.02333047  0.15347144  0.24920335     0.03700
C633        C  0.96111805  0.16960488  0.15965199     0.38300
C634        C  0.04576999  0.10242240  0.27907349     0.38300
C635        C  0.04692983  0.17148717  0.27615345     0.36700
C636        C  0.95611073  0.10043974  0.16674837     0.36700
N637        N  0.06583259  0.18585695  0.29749163    -0.38100
N638        N  0.93761764  0.08624750  0.14454651    -0.38100
N639        N  0.06467254  0.08898750  0.30090022    -0.37500
N640        N  0.94557760  0.18323740  0.13360507    -0.37500
C641        C  0.71201189  0.97436910  0.70343511    -0.04200
C642        C  0.69298883  0.98870773  0.66959079    -0.01300
C643        C  0.67703757  0.96903725  0.63738620     0.03700
C644        C  0.68212398  0.93507512  0.63656934    -0.04200
C645        C  0.70063872  0.92073643  0.67103237    -0.01300
C646        C  0.71474787  0.94022562  0.70487163     0.03700
C647        C  0.69154743  0.02377577  0.66592667     0.38300
C648        C  0.70569082  0.88589321  0.67133799     0.38300
C649        C  0.73229743  0.92519019  0.74124691     0.36700
C650        C  0.65597903  0.98383357  0.60439076     0.36700
N651        N  0.74612340  0.91330770  0.77049110    -0.38100
N652        N  0.63934704  0.99558247  0.57783871    -0.38100
N653        N  0.70967265  0.85808922  0.67172986    -0.37500
N654        N  0.69062474  0.05170995  0.66196250    -0.37500
C655        C  0.72001808  0.05437669  0.83205276    -0.04200
C656        C  0.73520185  0.05948348  0.87422351    -0.01300
C657        C  0.71972074  0.07849707  0.90716944     0.03700
C658        C  0.68626781  0.08697952  0.90275223    -0.04200
C659        C  0.67072049  0.08103311  0.86135802    -0.01300
C660        C  0.68839349  0.06782820  0.82543468     0.03700
C661        C  0.76568546  0.04366688  0.88578842     0.38300
C662        C  0.63617680  0.08775156  0.85511929     0.38300
C663        C  0.67376233  0.06933317  0.78155828     0.36700
C664        C  0.73833405  0.08897616  0.94596177     0.36700
N665        N  0.66127674  0.07101349  0.74712887    -0.38100
N666        N  0.75307713  0.09719452  0.97701580    -0.38100
N667        N  0.60874467  0.09296553  0.84874255    -0.37500
N668        N  0.78993933  0.03109660  0.89552390    -0.37500
C669        C  0.98404776  0.26095432  0.66916710    -0.04200
C670        C  0.97691819  0.24667460  0.62710997    -0.01300
C671        C  0.95746785  0.26310476  0.59564106     0.03700
C672        C  0.94957771  0.29613007  0.60168870    -0.04200
C673        C  0.95981414  0.31184426  0.64121049    -0.01300
C674        C  0.97498799  0.29407340  0.67569874     0.03700
C675        C  0.99091521  0.21569772  0.61455752     0.38300
C676        C  0.95412778  0.34644830  0.64677851     0.38300
C677        C  0.98016653  0.31055967  0.71772414     0.36700
C678        C  0.94402824  0.24519836  0.55819302     0.36700
N679        N  0.98410904  0.32513028  0.75024961    -0.38100
N680        N  0.93280305  0.23039670  0.52908419    -0.38100
N681        N  0.94939159  0.37396366  0.65116350    -0.37500
N682        N  0.00217430  0.19109408  0.60427860    -0.37500
C683        C  0.06018039  0.25282085  0.80205235    -0.04200
C684        C  0.04654929  0.27675622  0.83002763    -0.01300
C685        C  0.06653418  0.29392743  0.86061383     0.03700
C686        C  0.09972638  0.28527191  0.86675457    -0.04200
C687        C  0.11272483  0.25951008  0.84137000    -0.01300
C688        C  0.09341631  0.24417791  0.80801727     0.03700
C689        C  0.01140001  0.28195515  0.82991036     0.38300
C690        C  0.14580691  0.24851133  0.85002776     0.38300
C691        C  0.10785554  0.21968154  0.77970229     0.36700
C692        C  0.05270063  0.32021312  0.88653663     0.36700
N693        N  0.11948452  0.20018052  0.75709729    -0.38100
N694        N  0.04171863  0.34114428  0.90729015    -0.38100
N695        N  0.17220970  0.23974444  0.85702940    -0.37500
N696        N  0.98328275  0.28554391  0.83080696    -0.37500
C697        C  0.26526245  0.00430711  0.70086230    -0.04200
C698        C  0.25731379  0.03754611  0.69652898    -0.01300
C699        C  0.27345687  0.05692584  0.66458592     0.03700
C700        C  0.30002987  0.04421493  0.64014301    -0.04200
C701        C  0.30949947  0.01174306  0.64724925    -0.01300
C702        C  0.29014773  0.99123536  0.67391568     0.03700
C703        C  0.23231426  0.05175527  0.72446535     0.38300
C704        C  0.33857233  0.99908166  0.62592707     0.38300
C705        C  0.29266467  0.95637413  0.66835754     0.36700
C706        C  0.26271427  0.08993210  0.65688192     0.36700
N707        N  0.29369210  0.92869158  0.66169261    -0.38100
N708        N  0.25421991  0.11630289  0.65084261    -0.38100
N709        N  0.36181719  0.98904924  0.60899833    -0.37500
N710        N  0.21232752  0.06302781  0.74673695    -0.37500
C711        C  0.30384108  0.89275796  0.89635201    -0.04200
C712        C  0.31827543  0.90078576  0.85525429    -0.01300
C713        C  0.29897580  0.91341459  0.82047560     0.03700
C714        C  0.26666947  0.92479700  0.82856014    -0.04200
C715        C  0.25320815  0.91910204  0.87136472    -0.01300
C716        C  0.27044912  0.90046964  0.90299143     0.03700
C717        C  0.35320340  0.89618384  0.84836955     0.38300
C718        C  0.22257084  0.93373681  0.88474075     0.38300
C719        C  0.25360125  0.88921256  0.94246835     0.36700
C720        C  0.31254321  0.91254587  0.77621787     0.36700
N721        N  0.24027472  0.88021369  0.97399691    -0.38100
N722        N  0.32474188  0.91080093  0.74176925    -0.38100
N723        N  0.19825266  0.94533258  0.89613523    -0.37500
N724        N  0.38097307  0.89242665  0.84262579    -0.37500
C725        C  0.88933889  0.99590093  0.75021540    -0.04200
C726        C  0.87538782  0.02086069  0.72424378    -0.01300
C727        C  0.84169178  0.02817796  0.72815006     0.03700
C728        C  0.82161390  0.01032191  0.75738273    -0.04200
C729        C  0.83541469  0.98526130  0.78307183    -0.01300
C730        C  0.86904309  0.97796771  0.77938552     0.03700
C731        C  0.89572453  0.03944612  0.69400163     0.38300
C732        C  0.81484267  0.96675394  0.81318480     0.38300
C733        C  0.88243103  0.95099899  0.80427661     0.36700
C734        C  0.82760795  0.05426497  0.70238734     0.36700
N735        N  0.89315379  0.92941387  0.82388559    -0.38100
N736        N  0.81632033  0.07520463  0.68208599    -0.38100
N737        N  0.79848643  0.95205596  0.83731091    -0.37500
N738        N  0.91194197  0.05412014  0.66967712    -0.37500
C739        C  0.99951874  0.08311237  0.74645401    -0.04200
C740        C  0.97517032  0.10287867  0.76585967    -0.01300
C741        C  0.97755754  0.13723450  0.76343206     0.03700
C742        C  0.00463200  0.15220824  0.74243575    -0.04200
C743        C  0.02876681  0.13247528  0.72264084    -0.01300
C744        C  0.02616094  0.09817642  0.72443498     0.03700
C745        C  0.94721645  0.08783589  0.78751873     0.38300
C746        C  0.05627286  0.14758571  0.70000785     0.38300
C747        C  0.05154662  0.07837112  0.70476944     0.36700
C748        C  0.95216545  0.15725177  0.78255737     0.36700
N749        N  0.07182107  0.06255424  0.68916857    -0.38100
N750        N  0.93183701  0.17329397  0.79757512    -0.38100
N751        N  0.07813750  0.15971802  0.68189163    -0.37500
N752        N  0.92495930  0.07575677  0.80482978    -0.37500
C753        C  0.09056919  0.96915745  0.75447749    -0.04200
C754        C  0.10999508  0.98474849  0.78765520    -0.01300
C755        C  0.14427377  0.98026832  0.78900533     0.03700
C756        C  0.15960476  0.95975184  0.75792512    -0.04200
C757        C  0.14042918  0.94356168  0.72552040    -0.01300
C758        C  0.10605833  0.94796934  0.72394115     0.03700
C759        C  0.09510879  0.00620287  0.82001170     0.38300
C760        C  0.15626129  0.92256558  0.69352456     0.38300
C761        C  0.08667463  0.92964516  0.69182117     0.36700
C762        C  0.16408580  0.99801320  0.82132917     0.36700
N763        N  0.07125683  0.91487773  0.66629469    -0.38100
N764        N  0.17986930  0.01235467  0.84689196    -0.38100
N765        N  0.16901990  0.90589912  0.66800231    -0.37500
N766        N  0.08328317  0.02310152  0.84609470    -0.37500
C767        C  0.02262030  0.71014073  0.66854856    -0.04200
C768        C  0.05369126  0.72235172  0.65472384    -0.01300
C769        C  0.07036042  0.70801826  0.61864032     0.03700
C770        C  0.05790067  0.67957728  0.59796597    -0.04200
C771        C  0.02770682  0.66643635  0.61260298    -0.01300
C772        C  0.00963319  0.68215817  0.64647469     0.03700
C773        C  0.06965523  0.74876107  0.67882524     0.38300
C774        C  0.01526111  0.63657992  0.59269285     0.38300
C775        C  0.97730779  0.66969320  0.65757865     0.36700
C776        C  0.10079355  0.72240823  0.60286744     0.36700
N777        N  0.95158053  0.65952729  0.66641594    -0.38100
N778        N  0.12501711  0.73380996  0.59005705    -0.38100
N779        N  0.00541147  0.61278222  0.57665567    -0.37500
N780        N  0.08253817  0.76977106  0.69797797    -0.37500
C781        C  0.96002182  0.70418878  0.81477630    -0.04200
C782        C  0.92746275  0.71142635  0.82800157    -0.01300
C783        C  0.91258083  0.69457501  0.86350278     0.03700
C784        C  0.92884970  0.66860036  0.88433652    -0.04200
C785        C  0.96077735  0.66050971  0.87042870    -0.01300
C786        C  0.97667839  0.67875407  0.83687476     0.03700
C787        C  0.90849370  0.73543032  0.80413169     0.38300
C788        C  0.97723479  0.63325476  0.89076974     0.38300
C789        C  0.01053732  0.67175800  0.82622179     0.36700
C790        C  0.88020424  0.70385810  0.87854199     0.36700
N791        N  0.03755432  0.66607594  0.81775736    -0.38100
N792        N  0.85445815  0.71138204  0.89065067    -0.38100
N793        N  0.99024283  0.61146583  0.90711024    -0.37500
N794        N  0.89333207  0.75457691  0.78518589    -0.37500
C795        C  0.98589073  0.81261509  0.74671840    -0.04200
C796        C  0.95896317  0.82940820  0.72849536    -0.01300
C797        C  0.95758306  0.86375685  0.73122386     0.03700
C798        C  0.98308033  0.88162068  0.75235303    -0.04200
C799        C  0.00938060  0.86466048  0.77206471    -0.01300
C800        C  0.01082545  0.83037831  0.76907891     0.03700
C801        C  0.93240280  0.81121724  0.70758117     0.38300
C802        C  0.03540007  0.88254195  0.79474014     0.38300
C803        C  0.03810768  0.81327834  0.78893551     0.36700
C804        C  0.92924315  0.88066613  0.71397434     0.36700
N805        N  0.05982263  0.79957237  0.80481127    -0.38100
N806        N  0.90649783  0.89418465  0.70063991    -0.38100
N807        N  0.05604799  0.89683188  0.81300833    -0.37500
N808        N  0.91117555  0.79662540  0.69106135    -0.37500
C809        C  0.77934562  0.50184863  0.82120913    -0.04200
C810        C  0.77053789  0.53454260  0.83007498    -0.01300
C811        C  0.78707366  0.55256484  0.86333523     0.03700
C812        C  0.81420614  0.53919528  0.88576341    -0.04200
C813        C  0.82374862  0.50706533  0.87613916    -0.01300
C814        C  0.80555857  0.48802737  0.84548760     0.03700
C815        C  0.74511432  0.55030110  0.80430472     0.38300
C816        C  0.85208535  0.49345063  0.89833333     0.38300
C817        C  0.81313078  0.45384633  0.84037263     0.36700
C818        C  0.77636271  0.58517848  0.87431881     0.36700
N819        N  0.81909064  0.42655320  0.83637167    -0.38100
N820        N  0.76798001  0.61120002  0.88312703    -0.38100
N821        N  0.87459763  0.48256273  0.91621210    -0.37500
N822        N  0.72477058  0.56296853  0.78403114    -0.37500
C823        C  0.81863758  0.40314866  0.61220378    -0.04200
C824        C  0.79100943  0.38786130  0.63147285    -0.01300
C825        C  0.77417958  0.40302420  0.66672589     0.03700
C826        C  0.78263679  0.43513715  0.68017878    -0.04200
C827        C  0.80964280  0.45086342  0.65953095    -0.01300
C828        C  0.82834719  0.43436517  0.62734429     0.03700
C829        C  0.77979301  0.35648294  0.61494343     0.38300
C830        C  0.81767393  0.48449427  0.66996430     0.38300
C831        C  0.85759025  0.44969948  0.60933835     0.36700
C832        C  0.74898006  0.38491753  0.69019940     0.36700
N833        N  0.88097990  0.46185016  0.59507733    -0.38100
N834        N  0.72902468  0.37044249  0.70914529    -0.38100
N835        N  0.82410050  0.51130706  0.67830398    -0.37500
N836        N  0.77089356  0.33139476  0.60188846    -0.37500
C837        C  0.52844458  0.21904400  0.83941592    -0.04200
C838        C  0.53729326  0.18578371  0.84202569    -0.01300
C839        C  0.54927056  0.17283641  0.88204778     0.03700
C840        C  0.55950803  0.19351844  0.91693123    -0.04200
C841        C  0.55203468  0.22686495  0.91444267    -0.01300
C842        C  0.53421112  0.23894702  0.87768138     0.03700
C843        C  0.53668694  0.16473506  0.80339938     0.38300
C844        C  0.56263997  0.24884613  0.94954290     0.38300
C845        C  0.52115475  0.27157033  0.88050785     0.36700
C846        C  0.54971949  0.13789678  0.88824574     0.36700
N847        N  0.51089042  0.29764623  0.88285796    -0.38100
N848        N  0.54898633  0.11012612  0.89407757    -0.38100
N849        N  0.57091924  0.26641408  0.97761540    -0.37500
N850        N  0.53689299  0.14716513  0.77334958    -0.37500
C851        C  0.45569272  0.20792614  0.70235722    -0.04200
C852        C  0.42279182  0.21603768  0.69248801    -0.01300
C853        C  0.40455136  0.19741831  0.66130180     0.03700
C854        C  0.41855943  0.16986348  0.64095002    -0.04200
C855        C  0.45122298  0.16154357  0.65129216    -0.01300
C856        C  0.47013612  0.18143342  0.68004053     0.03700
C857        C  0.40799647  0.24420598  0.71307511     0.38300
C858        C  0.46582287  0.13320966  0.63087708     0.38300
C859        C  0.50534722  0.17699285  0.68248432     0.36700
C860        C  0.37153333  0.20698260  0.64923797     0.36700
N861        N  0.53357297  0.17423640  0.68316817    -0.38100
N862        N  0.34520818  0.21447303  0.63936082    -0.38100
N863        N  0.47756130  0.11066830  0.61453991    -0.37500
N864        N  0.39614468  0.26688259  0.72891463    -0.37500
C865        C  0.22760459  0.46174430  0.78863058    -0.04200
C866        C  0.24374880  0.45759287  0.83005055    -0.01300
C867        C  0.23057009  0.43657355  0.86235279     0.03700
C868        C  0.19813780  0.42442824  0.85822920    -0.04200
C869        C  0.18000045  0.43218035  0.81967072    -0.01300
C870        C  0.19523252  0.44869470  0.78395586     0.03700
C871        C  0.27309487  0.47632262  0.84103224     0.38300
C872        C  0.14556806  0.42293978  0.81658212     0.38300
C873        C  0.17725902  0.45118124  0.74257552     0.36700
C874        C  0.25116779  0.42649852  0.89901504     0.36700
N875        N  0.16202803  0.45293160  0.71021037    -0.38100
N876        N  0.26796555  0.41818836  0.92773347    -0.38100
N877        N  0.11814728  0.41548363  0.81424532    -0.37500
N878        N  0.29630534  0.49144764  0.85004320    -0.37500
C879        C  0.22864794  0.53671386  0.65518504    -0.04200
C880        C  0.20513555  0.52203767  0.62664495    -0.01300
C881        C  0.18675913  0.54113606  0.59695270     0.03700
C882        C  0.19354820  0.57473119  0.59269709    -0.04200
C883        C  0.21839410  0.58911858  0.61941989    -0.01300
C884        C  0.23514514  0.57041667  0.65147303     0.03700
C885        C  0.20135626  0.48694910  0.62568176     0.38300
C886        C  0.22690306  0.62311880  0.61359207     0.38300
C887        C  0.25880475  0.58592034  0.68098608     0.36700
C888        C  0.16107915  0.52610421  0.57015075     0.36700
N889        N  0.27762624  0.59823206  0.70469103    -0.38100
N890        N  0.14055224  0.51419109  0.54876948    -0.38100
N891        N  0.23376034  0.65023676  0.60881498    -0.37500
N892        N  0.19882153  0.45892695  0.62411504    -0.37500
C893        C  0.60566971  0.47815181  0.74085528    -0.04200
C894        C  0.62645516  0.49894712  0.71620353    -0.01300
C895        C  0.66080514  0.49511402  0.71792871     0.03700
C896        C  0.67468546  0.47065678  0.74454180    -0.04200
C897        C  0.65406790  0.45015475  0.76970354    -0.01300
C898        C  0.61965807  0.45372955  0.76771329     0.03700
C899        C  0.61257974  0.52515250  0.69037372     0.38300
C900        C  0.66835881  0.42522124  0.79740775     0.38300
C901        C  0.59868556  0.43153878  0.79223137     0.36700
C902        C  0.68203498  0.51685526  0.69310332     0.36700
N903        N  0.58197923  0.41380019  0.81174773    -0.38100
N904        N  0.69908958  0.53414819  0.67341226    -0.38100
N905        N  0.67985791  0.40540995  0.81954078    -0.37500
N906        N  0.60143960  0.54612392  0.66997478    -0.37500
C907        C  0.50401064  0.38330356  0.73613355    -0.04200
C908        C  0.52906115  0.36526265  0.71528336    -0.01300
C909        C  0.52951868  0.33105793  0.71899503     0.03700
C910        C  0.50529654  0.31490920  0.74402585    -0.04200
C911        C  0.48070203  0.33292285  0.76554966    -0.01300
C912        C  0.47983570  0.36693073  0.76127460     0.03700
C913        C  0.55512855  0.38192148  0.69159864     0.38300
C914        C  0.45639399  0.31634645  0.79259200     0.38300
C915        C  0.45347389  0.38493903  0.78188831     0.36700
C916        C  0.55492597  0.31244268  0.69737568     0.36700
N917        N  0.43243298  0.39930199  0.79824076    -0.38100
N918        N  0.57517630  0.29753481  0.68013161    -0.38100
N919        N  0.43720020  0.30302341  0.81428657    -0.37500
N920        N  0.57600198  0.39524519  0.67289743    -0.37500
C921        C  0.40329296  0.48617504  0.71894079    -0.04200
C922        C  0.38622574  0.51075531  0.74196491    -0.01300
C923        C  0.35166537  0.51233710  0.73940245     0.03700
C924        C  0.33372436  0.48969482  0.71331007    -0.04200
C925        C  0.35068814  0.46581854  0.68907080    -0.01300
C926        C  0.38531139  0.46384135  0.69211112     0.03700
C927        C  0.40434059  0.53532458  0.76696664     0.38300
C928        C  0.33241681  0.44357707  0.66059154     0.38300
C929        C  0.40222002  0.43817802  0.66865268     0.36700
C930        C  0.33448638  0.53753122  0.76347882     0.36700
N931        N  0.41562067  0.41762171  0.64995530    -0.38100
N932        N  0.32082342  0.55768105  0.78262797    -0.38100
N933        N  0.31770935  0.42608666  0.63762341    -0.37500
N934        N  0.41894781  0.55494493  0.78662148    -0.37500
C935        C  0.46250387  0.74860735  0.82405870    -0.04200
C936        C  0.47645970  0.77404460  0.85013592    -0.01300
C937        C  0.45796247  0.78924431  0.88378570     0.03700
C938        C  0.42689339  0.77660099  0.89617243    -0.04200
C939        C  0.41443524  0.74897825  0.87326349    -0.01300
C940        C  0.43087041  0.73668748  0.83552594     0.03700
C941        C  0.51038747  0.78397082  0.84369827     0.38300
C942        C  0.38468444  0.73303991  0.88855829     0.38300
C943        C  0.41423357  0.71303175  0.80729166     0.36700
C944        C  0.47123817  0.81787954  0.90601436     0.36700
N945        N  0.40086669  0.69442299  0.78445984    -0.38100
N946        N  0.48196477  0.84053856  0.92400481    -0.38100
N947        N  0.36095781  0.72027157  0.90069598    -0.37500
N948        N  0.53749444  0.79173054  0.83868052    -0.37500
C949        C  0.57108456  0.80468605  0.63076489    -0.04200
C950        C  0.53639191  0.80501624  0.62961265    -0.01300
C951        C  0.51807113  0.78567424  0.65937026     0.03700
C952        C  0.53428638  0.76553133  0.69010756    -0.04600
C953        C  0.56896287  0.76629537  0.69249555    -0.01300
C954        C  0.58725073  0.78600989  0.66322182     0.03700
C955        C  0.51960624  0.82476923  0.59707592     0.38300
C956        C  0.58588425  0.74686905  0.72529402     0.38300
C957        C  0.62280372  0.78683581  0.66609171     0.36700
C958        C  0.48251126  0.78589019  0.65766426     0.36700
N959        N  0.65114941  0.78783152  0.66848348    -0.38100
N960        N  0.45412574  0.78613075  0.65657462    -0.38100
N961        N  0.59942803  0.73135311  0.75139036    -0.37500
N962        N  0.50629809  0.84035725  0.57083750    -0.37500
C963        C  0.50437274  0.65242941  0.73668374    -0.04200
C964        C  0.48301271  0.63576297  0.70712818    -0.01300
C965        C  0.48478796  0.60160324  0.70242521     0.03700
C966        C  0.50763963  0.58384616  0.72781877    -0.04200
C967        C  0.53013085  0.60080546  0.75557898    -0.01300
C968        C  0.52847639  0.63493258  0.75996817     0.03700
C969        C  0.45873431  0.65374866  0.68224036     0.38300
C970        C  0.55568972  0.58319452  0.77861817     0.38300
C971        C  0.55168063  0.65218176  0.78835108     0.36700
C972        C  0.46244071  0.58469209  0.67242828     0.36700
N973        N  0.57019420  0.66605870  0.81087217    -0.38100
N974        N  0.44478387  0.57115492  0.64831406    -0.38100
N975        N  0.57617619  0.56909326  0.79669715    -0.37500
N976        N  0.43933739  0.66809311  0.66240859    -0.37500
C977        C  0.22511363  0.47427362  0.15741716    -0.04200
C978        C  0.19226044  0.46223168  0.15994136    -0.01300
C979        C  0.17857998  0.44338845  0.12489642     0.03700
C980        C  0.19826722  0.43323759  0.08911001    -0.04200
C981        C  0.23082095  0.44496497  0.08647461    -0.01300
C982        C  0.24308560  0.46738874  0.11814374     0.03700
C983        C  0.17208608  0.46796557  0.19850717     0.38300
C984        C  0.25249895  0.43259276  0.05250218     0.38300
C985        C  0.27387176  0.48407472  0.10897139     0.36700
C986        C  0.14419569  0.43374098  0.12610164     0.36700
N987        N  0.29840223  0.49729350  0.10136481    -0.38100
N988        N  0.11683398  0.42595399  0.12698860    -0.38100
N989        N  0.27007397  0.42232600  0.02602065    -0.37500
N990        N  0.15474105  0.47219174  0.22818989    -0.37500
C991        C  0.22457415  0.55080119  0.29157938    -0.04200
C992        C  0.23518270  0.58302775  0.30094862    -0.01300
C993        C  0.22106392  0.60068332  0.33628329     0.03700
C994        C  0.19453872  0.58723475  0.36029280    -0.04200
C995        C  0.18334368  0.55546450  0.34995988    -0.01300
C996        C  0.19943844  0.53678750  0.31758402     0.03700
C997        C  0.26108001  0.59783073  0.27480629     0.38300
C998        C  0.15562055  0.54161149  0.37360899     0.38300
C999        C  0.19252989  0.50219839  0.31468156     0.36700
C1000       C  0.23415148  0.63243314  0.34837245     0.36700
N1001       N  0.18762269  0.47445368  0.31376680    -0.38100
N1002       N  0.24444498  0.65786387  0.35784270    -0.38100
N1003       N  0.13344895  0.53066921  0.39241216    -0.37500
N1004       N  0.28181455  0.60960043  0.25404391    -0.37500
C1005       C  0.43302766  0.78632564  0.13040063    -0.04200
C1006       C  0.44578366  0.80570419  0.16550781    -0.01300
C1007       C  0.46398344  0.79142711  0.20041807     0.03700
C1008       C  0.47508202  0.75875544  0.19685177    -0.04200
C1009       C  0.46557860  0.74101320  0.15808574    -0.01300
C1010       C  0.44133082  0.75310510  0.12922445     0.03700
C1011       C  0.44014730  0.84050760  0.16608048     0.38300
C1012       C  0.48240353  0.71155227  0.14511061     0.38300
C1013       C  0.42459291  0.73100329  0.09879848     0.36700
C1014       C  0.46998100  0.81088614  0.23980611     0.36700
N1015       N  0.41096406  0.71333952  0.07488797    -0.38100
N1016       N  0.47434883  0.82748429  0.27038885    -0.38100
N1017       N  0.49595132  0.68825363  0.13429863    -0.37500
N1018       N  0.43556062  0.86821961  0.16671627    -0.37500
C1019       C  0.55197134  0.76111237  0.33139856    -0.04200
C1020       C  0.53533697  0.78397270  0.35802268    -0.01300
C1021       C  0.55240883  0.80184378  0.39096895     0.03700
C1022       C  0.58557292  0.79498304  0.40058732    -0.04200
C1023       C  0.60144503  0.77005676  0.37678912    -0.01300
C1024       C  0.58512064  0.75396344  0.34135621     0.03700
C1025       C  0.49997967  0.78691552  0.35453510     0.38300
C1026       C  0.63450223  0.76086305  0.38912609     0.38300
C1027       C  0.60239859  0.72979689  0.31555323     0.36700
C1028       C  0.53562942  0.82707960  0.41553082     0.36700
N1029       N  0.61618280  0.71038109  0.29517765    -0.38100
N1030       N  0.52227231  0.84723458  0.43507727    -0.38100
N1031       N  0.66088929  0.75368102  0.39913663    -0.37500
N1032       N  0.47167756  0.78863537  0.35276537    -0.37500
C1033       C  0.76842683  0.52360756  0.18828347    -0.04200
C1034       C  0.80139849  0.53533857  0.19102271    -0.01300
C1035       C  0.81714933  0.54852129  0.15354011     0.03700
C1036       C  0.79905325  0.55670151  0.11540951    -0.04200
C1037       C  0.76559507  0.54739185  0.11314376    -0.01300
C1038       C  0.75131310  0.52853325  0.14747356     0.03700
C1039       C  0.81972223  0.53547462  0.23223320     0.38300
C1040       C  0.74597596  0.55657686  0.07502278     0.38300
C1041       C  0.72000956  0.51256821  0.13883820     0.36700
C1042       C  0.85266158  0.55147526  0.15311999     0.36700
N1043       N  0.69514817  0.49971729  0.13153676    -0.38100
N1044       N  0.88101939  0.55265351  0.15218597    -0.38100
N1045       N  0.73038874  0.56385455  0.04452950    -0.37500
N1046       N  0.83577283  0.53632072  0.26393761    -0.37500
C1047       C  0.77745512  0.44935926  0.32167369    -0.04200
C1048       C  0.80374790  0.46455344  0.34475844    -0.01300
C1049       C  0.82511917  0.44604054  0.37114738     0.03700
C1050       C  0.81755101  0.41321718  0.38039085    -0.04200
C1051       C  0.78965721  0.39856545  0.36036187    -0.01300
C1052       C  0.77058472  0.41609085  0.32956881     0.03700
C1053       C  0.80629034  0.49969078  0.34628986     0.38300
C1054       C  0.78037935  0.36555861  0.37193835     0.38300
C1055       C  0.74363934  0.39988896  0.30665793     0.36700
C1056       C  0.85448524  0.46102767  0.38987275     0.36700
N1057       N  0.72210055  0.38677746  0.28866529    -0.38100
N1058       N  0.87805325  0.47287332  0.40452119    -0.38100
N1059       N  0.77314317  0.33920142  0.38127306    -0.37500
N1060       N  0.80765559  0.52770706  0.34953038    -0.37500
C1061       C  0.32789746  0.49835960  0.24425629    -0.04200
C1062       C  0.34894282  0.52002779  0.22161701    -0.01300
C1063       C  0.38316386  0.51830692  0.22773527     0.03700
C1064       C  0.39659775  0.49437859  0.25581187    -0.04200
C1065       C  0.37541648  0.47280063  0.27864066    -0.01300
C1066       C  0.34112022  0.47494832  0.27300132     0.03700
C1067       C  0.33528235  0.54436383  0.19231996     0.38300
C1068       C  0.38883688  0.44794543  0.30723971     0.38300
C1069       C  0.31930365  0.45329259  0.29698538     0.36700
C1070       C  0.40441832  0.54221202  0.20679214     0.36700
N1071       N  0.30176210  0.43615059  0.31613960    -0.38100
N1072       N  0.42139379  0.56139173  0.19043665    -0.38100
N1073       N  0.39955330  0.42815383  0.33011666    -0.37500
N1074       N  0.32439004  0.56373645  0.16892791    -0.37500
C1075       C  0.50388490  0.58728721  0.27197171    -0.04200
C1076       C  0.52863954  0.60389860  0.24812435    -0.01300
C1077       C  0.52995484  0.63814258  0.24851743     0.03700
C1078       C  0.50702785  0.65595330  0.27349582    -0.04200
C1079       C  0.48295425  0.63950137  0.29835696    -0.01300
C1080       C  0.48116855  0.60525974  0.29738857     0.03700
C1081       C  0.55350226  0.58580394  0.22445532     0.38300
C1082       C  0.46003024  0.65795387  0.32485007     0.38300
C1083       C  0.45521089  0.58868043  0.32139857     0.36700
C1084       C  0.55480286  0.65515340  0.22294407     0.36700
N1085       N  0.43448843  0.57544914  0.34051123    -0.38100
N1086       N  0.57454909  0.66874697  0.20248138    -0.38100
N1087       N  0.44189660  0.67283101  0.34603331    -0.37500
N1088       N  0.57341848  0.57134424  0.20581897    -0.37500
C1089       C  0.59808135  0.48471293  0.27661609    -0.04200
C1090       C  0.61475314  0.51001295  0.29970249    -0.01300
C1091       C  0.64941499  0.51212011  0.29873605     0.03700
C1092       C  0.66752641  0.48934412  0.27406954    -0.04200
C1093       C  0.65090677  0.46361511  0.25197974    -0.01300
C1094       C  0.61637075  0.46125655  0.25332889     0.03700
C1095       C  0.59619105  0.53485359  0.32252659     0.38300
C1096       C  0.66943598  0.43965215  0.22739954     0.38300
C1097       C  0.59963583  0.43441866  0.23110220     0.36700
C1098       C  0.66646935  0.53770770  0.32302412     0.36700
N1099       N  0.58624214  0.41301327  0.21345997    -0.38100
N1100       N  0.68005329  0.55805405  0.34262225    -0.38100
N1101       N  0.68424826  0.42058138  0.20778008    -0.37500
N1102       N  0.58127528  0.55472418  0.34045632    -0.37500
C1103       C  0.52024784  0.21299803  0.21578463    -0.04200
C1104       C  0.55411384  0.22011658  0.21157399    -0.01300
C1105       C  0.57272247  0.20462782  0.17832903     0.03700
C1106       C  0.55820784  0.18013337  0.15129409    -0.04200
C1107       C  0.52517734  0.17106077  0.15847758    -0.01300
C1108       C  0.50571770  0.18922014  0.18779111     0.03700
C1109       C  0.56962355  0.24398327  0.24063119     0.38300
C1110       C  0.51089428  0.14369801  0.13447687     0.38300
C1111       C  0.47031479  0.18652931  0.18446223     0.36700
C1112       C  0.60678995  0.21396030  0.17187714     0.36700
N1113       N  0.44210981  0.18526690  0.18006050    -0.38100
N1114       N  0.63405503  0.22116405  0.16695998    -0.38100
N1115       N  0.49958629  0.12177227  0.11546317    -0.37500
N1116       N  0.58195596  0.26310120  0.26372275    -0.37500
C1117       C  0.43834891  0.21570481  0.34186953    -0.04200
C1118       C  0.42893556  0.18251502  0.33653039    -0.01300
C1119       C  0.41633661  0.16473677  0.37249429     0.03700
C1120       C  0.40453945  0.18074827  0.41043908    -0.04200
C1121       C  0.41005199  0.21466314  0.41423081    -0.01300
C1122       C  0.42977812  0.23115323  0.38265735     0.03700
C1123       C  0.43049145  0.16596847  0.29413711     0.38300
C1124       C  0.39637523  0.23249481  0.45131305     0.38300
C1125       C  0.44301087  0.26289049  0.39452387     0.36700
C1126       C  0.41845461  0.12964445  0.37172384     0.36700
N1127       N  0.45368291  0.28809097  0.40443979    -0.38100
N1128       N  0.42167975  0.10178284  0.37121220    -0.38100
N1129       N  0.38548519  0.24675024  0.48087037    -0.37500
N1130       N  0.43092799  0.15133693  0.26132255    -0.37500
C1131       C  0.48670994  0.38731138  0.26487179    -0.04200
C1132       C  0.50400066  0.36828043  0.29598314    -0.01300
C1133       C  0.49933381  0.33432635  0.29703106     0.03700
C1134       C  0.47711985  0.31899503  0.26738666    -0.04200
C1135       C  0.46007492  0.33771375  0.23595308    -0.01300
C1136       C  0.46472144  0.37181217  0.23471889     0.03700
C1137       C  0.52756415  0.38343130  0.32607758     0.38300
C1138       C  0.43804431  0.32173102  0.20465578     0.38300
C1139       C  0.44612310  0.39088645  0.20322834     0.36700
C1140       C  0.51832736  0.31490414  0.32774273     0.36700
N1141       N  0.43123898  0.40603100  0.17806544    -0.38100
N1142       N  0.53362951  0.29938931  0.35198804    -0.38100
N1143       N  0.42057527  0.30884819  0.17965735    -0.37500
N1144       N  0.54627829  0.39560548  0.35007108    -0.37500
loop_ 
_geom_bond_atom_site_label_1 
_geom_bond_atom_site_label_2 
_geom_bond_distance 
_geom_bond_site_symmetry_2 
_ccdc_geom_bond_type 
C1            C2   1.416       .  A
C1            C6   1.418       .  A
C1         C1117   1.523       .  S
C2            C3   1.406       .  A
C2            H7   1.081       .  S
C3            C4   1.395       .  A
C3         C1134   1.485       .  S
C4            C5   1.396       .  A
C4            H8   1.084       .  S
C5            C6   1.407       .  A
C5         C1103   1.492       .  S
C6            H9   1.081       .  S
O10         Cu18   1.998       .  S
O10          C20   1.277       .  A
O11         Cu18   2.004       .  S
O11          C21   1.277       .  A
O12         Cu18   2.017       .  S
O12          C22   1.279       .  A
O13         Cu18   2.014       .  S
O13          C23   1.279       .  A
O14         Cu19   1.997       .  S
O14          C23   1.276       .  A
O15         Cu19   2.002       .  S
O15          C22   1.278       .  A
O16         Cu19   2.022       .  S
O16          C21   1.279       .  A
O17         Cu19   2.012       .  S
O17          C20   1.278       .  A
Cu18        Cu19   2.374       .  S
C20        C1064   1.483       .  S
C21        C1089   1.487       .  S
C22        C1131   1.490       .  S
C23        C1075   1.484       .  S
C24          C25   1.409       .  A
C24          C29   1.400       .  A
C24        C1047   1.496       .  S
C25          C26   1.416       .  A
C25          H30   1.081       .  S
C26          C27   1.416       .  A
C26        C1033   1.524       .  S
C27          C28   1.407       .  A
C27          H31   1.081       .  S
C28          C29   1.398       .  A
C28        C1092   1.489       .  S
C29          H32   1.084       .  S
C33          C34   1.415       .  A
C33          C38   1.399       .  A
C33        C1019   1.496       .  S
C34          C35   1.420       .  A
C34          H39   1.080       .  S
C35          C36   1.413       .  A
C35        C1008   1.525       .  S
C36          C37   1.398       .  A
C36          H40   1.082       .  S
C37          C38   1.393       .  A
C37        C1078   1.481       .  S
C38          H41   1.084       .  S
C42          C43   1.414       .  A
C42          C47   1.398       .  A
C42         C991   1.494       .  S
C43          C44   1.418       .  A
C43          H48   1.081       .  S
C44          C45   1.413       .  A
C44         C977   1.519       .  S
C45          C46   1.398       .  A
C45          H49   1.083       .  S
C46          C47   1.392       .  A
C46        C1061   1.481       .  S
C47          H50   1.084       .  S
C51          C52   1.411       .  A
C51          C56   1.412       .  A
C51         C935   1.510       .  S
C52          C53   1.405       .  A
C52          H57   1.083       .  S
C53          C54   1.403       .  A
C53         C952   1.492       .  S
C54          C55   1.401       .  A
C54          H58   1.084       .  S
C55          C56   1.407       .  A
C55         C963   1.490       .  S
C56          H59   1.083       .  S
O60         Cu68   2.026       .  S
O60          C70   1.280       .  A
O61         Cu68   2.016       .  S
O61          C71   1.279       .  A
O62         Cu68   2.020       .  S
O62          C72   1.278       .  A
O63         Cu68   2.011       .  S
O63          C73   1.278       .  A
O64         Cu69   2.014       .  S
O64          C73   1.278       .  A
O65         Cu69   2.021       .  S
O65          C72   1.280       .  A
O66         Cu69   1.995       .  S
O66          C71   1.276       .  A
O67         Cu69   2.004       .  S
O67          C70   1.277       .  A
Cu68        Cu69   2.372       .  S
C70         C966   1.490       .  S
C71         C907   1.483       .  S
C72         C921   1.495       .  S
C73         C893   1.488       .  S
C74          C75   1.414       .  A
C74          C79   1.413       .  A
C74         C865   1.518       .  S
C75          C76   1.403       .  A
C75          H80   1.083       .  S
C76          C77   1.401       .  A
C76         C924   1.493       .  S
C77          C78   1.404       .  A
C77          H81   1.084       .  S
C78          C79   1.409       .  A
C78         C879   1.496       .  S
C79          H82   1.081       .  S
C83          C84   1.410       .  A
C83          C88   1.418       .  A
C83         C837   1.518       .  S
C84          C85   1.400       .  A
C84          H89   1.082       .  S
C85          C86   1.396       .  A
C85         C910   1.480       .  S
C86          C87   1.398       .  A
C86          H90   1.084       .  S
C87          C88   1.411       .  A
C87         C851   1.494       .  S
C88          H91   1.081       .  S
C92          C93   1.408       .  A
C92          C97   1.404       .  A
C92         C809   1.499       .  S
C93          C94   1.408       .  A
C93          H98   1.082       .  S
C94          C95   1.409       .  A
C94         C826   1.504       .  S
C95          C96   1.403       .  A
C95          H99   1.083       .  S
C96          C97   1.399       .  A
C96         C896   1.486       .  S
C97         H100   1.084       .  S
C101        C102   1.408       .  A
C101        C106   1.414       .  A
C101        C781   1.511       .  S
C102        C103   1.400       .  A
C102        H107   1.084       .  S
C103        C104   1.406   1_655  A
C103        C795   1.496       .  S
C104        C105   1.414       .  A
C104        H108   1.083       .  S
C105        C106   1.415   1_455  A
C105        C767   1.518       .  S
C106        H109   1.081       .  S
O110       Cu118   1.999       .  S
O110        C120   1.276       .  A
O111       Cu118   2.001   1_455  S
O111        C121   1.277       .  A
O112       Cu118   2.035   1_545  S
O112        C122   1.281       .  A
O113       Cu118   2.028       .  S
O113        C123   1.280       .  A
O114       Cu119   2.023       .  S
O114        C123   1.279       .  A
O115       Cu119   2.023   1_545  S
O115        C122   1.279       .  A
O116       Cu119   2.027   1_455  S
O116        C121   1.281       .  A
O117       Cu119   2.026       .  S
O117        C120   1.280       .  A
Cu118      Cu119   2.369       .  S
C120        C725   1.490       .  S
C121        C753   1.499       .  S
C122        C739   1.497       .  S
C123        C798   1.494       .  S
C124        C125   1.414       .  A
C124        C129   1.416       .  A
C124        C714   1.520       .  S
C125        C126   1.407       .  A
C125        H130   1.082       .  S
C126        C127   1.398       .  A
C126        C697   1.493   1_565  S
C127        C128   1.396       .  A
C127        H131   1.084       .  S
C128        C129   1.407       .  A
C128        C756   1.489       .  S
C129        H132   1.081       .  S
C133        C134   1.402       .  A
C133        C138   1.408       .  A
C133        C683   1.496       .  S
C134        C135   1.401       .  A
C134        H139   1.084       .  S
C135        C136   1.408   1_455  A
C135        C742   1.498       .  S
C136        C137   1.420   1_655  A
C136        H140   1.082       .  S
C137        C138   1.413       .  A
C137        C669   1.523   1_455  S
C138        H141   1.081       .  S
C142        C143   1.417       .  A
C142        C147   1.419       .  A
C142        C655   1.521       .  S
C143        C144   1.405       .  A
C143        H148   1.081       .  S
C144        C145   1.395   1_545  A
C144        C728   1.488       .  S
C145        C146   1.397       .  A
C145        H149   1.084       .  S
C146        C147   1.405   1_565  A
C146        C641   1.491       .  S
C147        H150   1.082       .  S
C151        C152   1.417   1_655  A
C151        C156   1.414       .  A
C151        C599   1.520       .  S
C152        C153   1.413       .  A
C152        H157   1.082       .  S
C153        C154   1.403       .  A
C153        C613   1.498       .  S
C154        C155   1.396       .  A
C154        H158   1.084       .  S
C155        C156   1.401   1_455  A
C155        C627   1.490       .  S
C156        H159   1.082       .  S
O160       Cu168   2.032   1_445  S
O160        C170   1.281       .  A
O161       Cu168   2.034       .  S
O161        C171   1.281       .  A
O162       Cu168   2.008   1_545  S
O162        C172   1.277       .  A
O163       Cu168   2.002   1_455  S
O163        C173   1.276       .  A
O164       Cu169   2.011   1_565  S
O164        C173   1.279       .  A
O165       Cu169   2.023       .  S
O165        C172   1.281   1_455  A
O166       Cu169   1.995   1_655  S
O166        C171   1.276   1_545  A
O167       Cu169   2.000       .  S
O167        C170   1.276       .  A
Cu168      Cu169   2.372   1_665  S
C170        C557   1.487   1_545  S
C171        C585   1.494       .  S
C172        C630   1.494       .  S
C173        C571   1.482   1_455  S
C174        C175   1.419       .  A
C174        C179   1.416       .  A
C174        C529   1.524       .  S
C175        C176   1.405       .  A
C175        H180   1.080       .  S
C176        C177   1.395   1_565  A
C176        C588   1.487       .  S
C177        C178   1.396       .  A
C177        H181   1.084       .  S
C178        C179   1.405   1_545  A
C178        C546   1.489       .  S
C179        H182   1.080   1_565  S
C183        C184   1.405       .  A
C183        C188   1.413   1_455  A
C183        C501   1.516       .  S
C184        C185   1.399   1_455  A
C184        H189   1.083       .  S
C185        C186   1.402       .  A
C185        C574   1.485       .  S
C186        C187   1.408       .  A
C186        H190   1.081       .  S
C187        C188   1.418       .  A
C187        C518   1.519       .  S
C188        H191   1.078       .  S
C192        C193   1.423       .  A
C192        C197   1.413   1_565  A
C192        C476   1.527   1_565  S
C193        C194   1.418       .  A
C193        H198   1.081       .  S
C194        C195   1.405       .  A
C194        C490   1.511       .  S
C195        C196   1.400       .  A
C195        H199   1.083       .  S
C196        C197   1.401   1_565  A
C196        C560   1.491       .  S
C197        H200   1.082       .  S
N201        C206   1.353       .  A
N201        C205   1.351       .  A
N201        H233   1.040       .  S
N202        C209   1.354   1_556  A
N202        C210   1.354       .  A
N203        C208   1.356       .  A
N203        C207   1.354       .  A
N203        H234   1.040       .  S
N204        C211   1.352   1_556  A
N204        C212   1.351       .  A
C205        C213   1.385       .  A
C205        C221   1.411       .  A
C206        C222   1.418       .  A
C206        C214   1.388       .  A
C207        C215   1.387       .  A
C207        C224   1.418       .  A
C208        C223   1.423       .  A
C208        C216   1.387       .  A
C209        C221   1.417       .  A
C209        C217   1.386       .  A
C210        C224   1.419       .  A
C210        C218   1.387       .  A
C211        C219   1.386   1_554  A
C211        C222   1.416       .  A
C212        C220   1.387       .  A
C212        C223   1.417       .  A
C213        C214   1.377       .  A
C213        H225   1.082       .  S
C214        H226   1.082       .  S
C215        C216   1.377       .  A
C215        H227   1.081       .  S
C216        H228   1.082       .  S
C217        C218   1.372   1_554  A
C217        H229   1.082       .  S
C218        H230   1.082       .  S
C219        C220   1.376       .  A
C219        H231   1.082   1_556  S
C220        H232   1.082       .  S
C221        C616   1.498       .  S
C222        C980   1.507       .  S
C223        C868   1.512       .  S
C224        C686   1.504       .  S
N235        C240   1.356       .  A
N235        C239   1.355       .  A
N235        H267   1.034       .  S
N236        C243   1.351       .  A
N236        C244   1.354   1_554  A
N237        C242   1.352       .  A
N237        C241   1.356       .  A
N237        H268   1.042       .  S
N238        C245   1.352       .  A
N238        C246   1.354   1_554  A
C239        C247   1.388       .  A
C239        C255   1.422       .  A
C240        C256   1.422       .  A
C240        C248   1.388       .  A
C241        C249   1.387       .  A
C241        C258   1.420       .  A
C242        C257   1.415       .  A
C242        C250   1.386       .  A
C243        C255   1.419       .  A
C243        C251   1.387       .  A
C244        C258   1.420       .  A
C244        C252   1.386       .  A
C245        C253   1.390       .  A
C245        C256   1.423       .  A
C246        C254   1.383   1_556  A
C246        C257   1.415       .  A
C247        C248   1.373       .  A
C247        H259   1.082       .  S
C248        H260   1.082       .  S
C249        C250   1.378       .  A
C249        H261   1.082       .  S
C250        H262   1.082       .  S
C251        C252   1.373   1_554  A
C251        H263   1.081       .  S
C252        H264   1.082       .  S
C253        C254   1.373       .  A
C253        H265   1.081       .  S
C254        H266   1.082   1_554  S
C255        C543   1.500       .  S
C256       C1106   1.503       .  S
C257        C840   1.506       .  S
C258        C658   1.520       .  S
N269        C274   1.355       .  A
N269        C273   1.355       .  A
N269        H301   1.042       .  S
N270        C277   1.353   1_556  A
N270        C278   1.354       .  A
N271        C276   1.354       .  A
N271        C275   1.357       .  A
N271        H302   1.038       .  S
N272        C279   1.353   1_556  A
N272        C280   1.350       .  A
C273        C281   1.388       .  A
C273        C289   1.422       .  A
C274        C290   1.419       .  A
C274        C282   1.385       .  A
C275        C283   1.387       .  A
C275        C292   1.420       .  A
C276        C291   1.422       .  A
C276        C284   1.388       .  A
C277        C289   1.423       .  A
C277        C285   1.389       .  A
C278        C292   1.416       .  A
C278        C286   1.384       .  A
C279        C287   1.384       .  A
C279        C290   1.414       .  A
C280        C288   1.388       .  A
C280        C291   1.416       .  A
C281        C282   1.380       .  A
C281        H293   1.082       .  S
C282        H294   1.082       .  S
C283        C284   1.375       .  A
C283        H295   1.082       .  S
C284        H296   1.082       .  S
C285        C286   1.376   1_554  A
C285        H297   1.082       .  S
C286        H298   1.082       .  S
C287        C288   1.371   1_554  A
C287        H299   1.082       .  S
C288        H300   1.081       .  S
C289        C515   1.518       .  S
C290       C1036   1.511       .  S
C291        C812   1.498       .  S
C292        C784   1.507       .  S
N303        C308   1.358       .  A
N303        C307   1.354       .  A
N303        H335   1.041       .  S
N304        C311   1.355       .  A
N304        C312   1.357   1_554  A
N305        C310   1.355       .  A
N305        C309   1.357       .  A
N305        H336   1.040       .  S
N306        C313   1.354       .  A
N306        C314   1.352   1_554  A
C307        C315   1.388       .  A
C307        C323   1.423       .  A
C308        C324   1.421       .  A
C308        C316   1.386       .  A
C309        C317   1.388       .  A
C309        C326   1.423       .  A
C310        C325   1.423       .  A
C310        C318   1.387       .  A
C311        C323   1.424       .  A
C311        C319   1.388       .  A
C312        C326   1.422       .  A
C312        C320   1.386       .  A
C313        C321   1.386       .  A
C313        C324   1.417       .  A
C314        C322   1.387       .  A
C314        C325   1.419       .  A
C315        C316   1.380       .  A
C315        H327   1.082       .  S
C316        H328   1.082       .  S
C317        C318   1.376       .  A
C317        H329   1.080       .  S
C318        H330   1.082       .  S
C319        C320   1.372   1_554  A
C319        H331   1.082       .  S
C320        H332   1.081       .  S
C321        C322   1.375   1_554  A
C321        H333   1.081       .  S
C322        H334   1.082       .  S
C323       C1005   1.516       .  S
C324        C487   1.513       .  S
C325        C711   1.514       .  S
C326        C938   1.515       .  S
N337        C342   1.357       .  A
N337        C341   1.357       .  A
N337        H369   1.034       .  S
N338        C345   1.354       .  A
N338        C346   1.354       .  A
N339        C344   1.355       .  A
N339        C343   1.354       .  A
N339        H370   1.038       .  S
N340        C347   1.354       .  A
N340        C348   1.355       .  A
C341        C349   1.387       .  A
C341        C357   1.424       .  A
C342        C358   1.426       .  A
C342        C350   1.388       .  A
C343        C351   1.386       .  A
C343        C360   1.414       .  A
C344        C359   1.421       .  A
C344        C352   1.388       .  A
C345        C357   1.421       .  A
C345        C353   1.388       .  A
C346        C360   1.418       .  A
C346        C354   1.386       .  A
C347        C355   1.386       .  A
C347        C358   1.422       .  A
C348        C356   1.386       .  A
C348        C359   1.424       .  A
C349        C350   1.376       .  A
C349        H361   1.082       .  S
C350        H362   1.082       .  S
C351        C352   1.372       .  A
C351        H363   1.080       .  S
C352        H364   1.082       .  S
C353        C354   1.371       .  A
C353        H365   1.082       .  S
C354        H366   1.082       .  S
C355        C356   1.375       .  A
C355        H367   1.081       .  S
C356        H368   1.082       .  S
C357        C882   1.506       .  S
C358        C770   1.512       .  S
C359        C504   1.517       .  S
C360        C994   1.501       .  S
N371        C376   1.355       .  A
N371        C375   1.356       .  A
N371        H403   1.036       .  S
N372        C379   1.352       .  A
N372        C380   1.353       .  A
N373        C378   1.356       .  A
N373        C377   1.356       .  A
N373        H404   1.040       .  S
N374        C381   1.354       .  A
N374        C382   1.356       .  A
C375        C383   1.386       .  A
C375        C391   1.419       .  A
C376        C392   1.423       .  A
C376        C384   1.389       .  A
C377        C385   1.388       .  A
C377        C394   1.424       .  A
C378        C393   1.422       .  A
C378        C386   1.386       .  A
C379        C391   1.416       .  A
C379        C387   1.387       .  A
C380        C394   1.416       .  A
C380        C388   1.386       .  A
C381        C389   1.389       .  A
C381        C392   1.424       .  A
C382        C390   1.384       .  A
C382        C393   1.419       .  A
C383        C384   1.375       .  A
C383        H395   1.082       .  S
C384        H396   1.082       .  S
C385        C386   1.380       .  A
C385        H397   1.082       .  S
C386        H398   1.082       .  S
C387        C388   1.371       .  A
C387        H399   1.081       .  S
C388        H400   1.082       .  S
C389        C390   1.370       .  A
C389        H401   1.080       .  S
C390        H402   1.082       .  S
C391        C854   1.502       .  S
C392        C700   1.503       .  S
C393        C473   1.519       .  S
C394       C1120   1.513       .  S
N405        C410   1.354       .  A
N405        C409   1.355       .  A
N405        H437   1.040       .  S
N406        C413   1.354       .  A
N406        C414   1.352       .  A
N407        C412   1.356       .  A
N407        C411   1.354       .  A
N407        H438   1.040       .  S
N408        C415   1.353       .  A
N408        C416   1.353       .  A
C409        C417   1.387       .  A
C409        C425   1.418       .  A
C410        C426   1.420       .  A
C410        C418   1.387       .  A
C411        C419   1.387       .  A
C411        C428   1.418       .  A
C412        C427   1.421       .  A
C412        C420   1.387       .  A
C413        C425   1.417       .  A
C413        C421   1.386       .  A
C414        C428   1.418       .  A
C414        C422   1.388       .  A
C415        C423   1.386       .  A
C415        C426   1.418       .  A
C416        C424   1.386       .  A
C416        C427   1.419       .  A
C417        C418   1.376       .  A
C417        H429   1.081       .  S
C418        H430   1.082       .  S
C419        C420   1.375       .  A
C419        H431   1.081       .  S
C420        H432   1.082       .  S
C421        C422   1.371       .  A
C421        H433   1.082       .  S
C422        H434   1.082       .  S
C423        C424   1.378       .  A
C423        H435   1.082       .  S
C424        H436   1.082       .  S
C425        C823   1.505       .  S
C426        C672   1.511       .  S
C427        C602   1.517       .  S
C428       C1050   1.500       .  S
N439        C444   1.357       .  A
N439        C443   1.356       .  A
N439        H471   1.038       .  S
N440        C447   1.354       .  A
N440        C448   1.355       .  A
N441        C446   1.357       .  A
N441        C445   1.355       .  A
N441        H472   1.035       .  S
N442        C449   1.351       .  A
N442        C450   1.351       .  A
C443        C451   1.388       .  A
C443        C459   1.420       .  A
C444        C460   1.419       .  A
C444        C452   1.386       .  A
C445        C453   1.389       .  A
C445        C462   1.425       .  A
C446        C461   1.420       .  A
C446        C454   1.386       .  A
C447        C459   1.423       .  A
C447        C455   1.386       .  A
C448        C462   1.424       .  A
C448        C456   1.387       .  A
C449        C457   1.387       .  A
C449        C460   1.416       .  A
C450        C458   1.386       .  A
C450        C461   1.416       .  A
C451        C452   1.374       .  A
C451        H463   1.082       .  S
C452        H464   1.082       .  S
C453        C454   1.369       .  A
C453        H465   1.082       .  S
C454        H466   1.081       .  S
C455        C456   1.371       .  A
C455        H467   1.081       .  S
C456        H468   1.081       .  S
C457        C458   1.372       .  A
C457        H469   1.082       .  S
C458        H470   1.082       .  S
C459        C644   1.507       .  S
C460        C949   1.502       .  S
C461       C1022   1.503       .  S
C462        C532   1.511       .  S
C473        C474   1.411       .  A
C473        C478   1.415       .  A
C474        C475   1.416       .  A
C474        C479   1.449       .  S
C475        C476   1.423       .  A
C475        C482   1.447       .  S
C476        C477   1.427       .  A
C477        C478   1.419       .  A
C477        C480   1.452       .  S
C478        C481   1.451       .  S
C479        N486   1.156       .  T
C480        N485   1.158   1_545  T
C481        N483   1.157       .  T
C482        N484   1.156       .  T
C487        C488   1.415       .  A
C487        C492   1.414       .  A
C488        C489   1.419       .  A
C488        C493   1.450       .  S
C489        C490   1.420       .  A
C489        C496   1.450       .  S
C490        C491   1.416       .  A
C491        C492   1.417       .  A
C491        C494   1.449       .  S
C492        C495   1.450       .  S
C493        N500   1.157       .  T
C494        N499   1.157   1_565  T
C495        N497   1.157       .  T
C496        N498   1.157       .  T
C501        C502   1.424       .  A
C501        C506   1.419       .  A
C502        C503   1.413       .  A
C502        C507   1.452       .  S
C503        C504   1.414       .  A
C503        C510   1.452       .  S
C504        C505   1.419       .  A
C505        C506   1.415       .  A
C505        C508   1.452       .  S
C506        C509   1.451       .  S
C507        N514   1.158       .  T
C508        N513   1.157       .  T
C509        N511   1.158       .  T
C510        N512   1.157       .  T
C515        C516   1.416       .  A
C515        C520   1.417       .  A
C516        C517   1.416       .  A
C516        C521   1.452       .  S
C517        C518   1.427       .  A
C517        C524   1.450       .  S
C518        C519   1.417       .  A
C519        C520   1.411       .  A
C519        C522   1.451       .  S
C520        C523   1.447       .  S
C521        N528   1.157       .  T
C522        N527   1.157       .  T
C523        N525   1.156       .  T
C524        N526   1.158       .  T
C529        C530   1.428       .  A
C529        C534   1.427       .  A
C530        C531   1.412       .  A
C530        C535   1.449       .  S
C531        C532   1.412       .  A
C531        C538   1.454       .  S
C532        C533   1.411       .  A
C533        C534   1.414       .  A
C533        C536   1.451       .  S
C534        C537   1.450       .  S
C535        N542   1.157       .  T
C536        N541   1.157       .  T
C537        N539   1.158       .  T
C538        N540   1.157       .  T
C543        C544   1.416       .  A
C543        C548   1.412       .  A
C544        C545   1.412       .  A
C544        C549   1.451       .  S
C545        C546   1.412       .  A
C545        C552   1.451       .  S
C546        C547   1.414       .  A
C547        C548   1.409       .  A
C547        C550   1.450   1_545  S
C548        C551   1.451       .  S
C549        N556   1.157       .  T
C550        N555   1.157       .  T
C551        N553   1.157       .  T
C552        N554   1.157       .  T
C557        C558   1.413   1_565  A
C557        C562   1.414       .  A
C558        C559   1.417       .  A
C558        C563   1.450       .  S
C559        C560   1.412   1_545  A
C559        C566   1.449       .  S
C560        C561   1.413       .  A
C561        C562   1.410       .  A
C561        C564   1.452       .  S
C562        C565   1.452       .  S
C563        N570   1.157       .  T
C564        N569   1.157       .  T
C565        N567   1.157       .  T
C566        N568   1.157       .  T
C571        C572   1.413       .  A
C571        C576   1.414   1_655  A
C572        C573   1.409       .  A
C572        C577   1.452       .  S
C573        C574   1.411       .  A
C573        C580   1.451       .  S
C574        C575   1.412   1_655  A
C575        C576   1.411       .  A
C575        C578   1.451       .  S
C576        C579   1.451       .  S
C577        N584   1.157       .  T
C578        N583   1.157       .  T
C579        N581   1.157       .  T
C580        N582   1.157       .  T
C585        C586   1.417   1_565  A
C585        C590   1.418       .  A
C586        C587   1.410       .  A
C586        C591   1.452       .  S
C587        C588   1.411   1_545  A
C587        C594   1.452       .  S
C588        C589   1.409       .  A
C589        C590   1.416       .  A
C589        C592   1.450       .  S
C590        C593   1.450       .  S
C591        N598   1.157       .  T
C592        N597   1.157       .  T
C593        N595   1.157       .  T
C594        N596   1.157       .  T
C599        C600   1.424       .  A
C599        C604   1.423       .  A
C600        C601   1.419       .  A
C600        C605   1.447       .  S
C601        C602   1.416       .  A
C601        C608   1.452       .  S
C602        C603   1.413       .  A
C603        C604   1.411       .  A
C603        C606   1.448       .  S
C604        C607   1.452       .  S
C605        N612   1.156       .  T
C606        N611   1.156       .  T
C607        N609   1.157   1_655  T
C608        N610   1.157       .  T
C613        C614   1.419       .  A
C613        C618   1.414       .  A
C614        C615   1.415       .  A
C614        C619   1.451       .  S
C615        C616   1.410       .  A
C615        C622   1.449       .  S
C616        C617   1.411       .  A
C617        C618   1.410       .  A
C617        C620   1.453       .  S
C618        C621   1.449       .  S
C619        N626   1.157       .  T
C620        N625   1.157       .  T
C621        N623   1.157   1_455  T
C622        N624   1.157       .  T
C627        C628   1.409   1_455  A
C627        C632   1.413       .  A
C628        C629   1.415       .  A
C628        C633   1.450       .  S
C629        C630   1.419       .  A
C629        C636   1.451       .  S
C630        C631   1.415   1_655  A
C631        C632   1.411       .  A
C631        C634   1.452       .  S
C632        C635   1.452       .  S
C633        N640   1.157       .  T
C634        N639   1.157       .  T
C635        N637   1.157       .  T
C636        N638   1.157       .  T
C641        C642   1.414       .  A
C641        C646   1.411       .  A
C642        C643   1.413       .  A
C642        C647   1.449   1_565  S
C643        C644   1.415       .  A
C643        C650   1.451       .  S
C644        C645   1.416       .  A
C645        C646   1.411       .  A
C645        C648   1.451       .  S
C646        C649   1.451       .  S
C647        N654   1.157       .  T
C648        N653   1.157       .  T
C649        N651   1.157       .  T
C650        N652   1.157       .  T
C655        C656   1.425       .  A
C655        C660   1.421       .  A
C656        C657   1.416       .  A
C656        C661   1.450       .  S
C657        C658   1.417       .  A
C657        C664   1.452       .  S
C658        C659   1.416       .  A
C659        C660   1.413       .  A
C659        C662   1.449       .  S
C660        C663   1.450       .  S
C661        N668   1.158       .  T
C662        N667   1.156       .  T
C663        N665   1.157       .  T
C664        N666   1.157       .  T
C669        C670   1.423       .  A
C669        C674   1.429       .  A
C670        C671   1.413       .  A
C670        C675   1.451       .  S
C671        C672   1.411       .  A
C671        C678   1.448       .  S
C672        C673   1.412       .  A
C673        C674   1.417       .  A
C673        C676   1.454       .  S
C674        C677   1.448       .  S
C675        N682   1.157   1_655  T
C676        N681   1.158       .  T
C677        N679   1.157       .  T
C678        N680   1.156       .  T
C683        C684   1.414       .  A
C683        C688   1.415       .  A
C684        C685   1.410       .  A
C684        C689   1.451       .  S
C685        C686   1.414       .  A
C685        C692   1.452       .  S
C686        C687   1.414       .  A
C687        C688   1.416       .  A
C687        C690   1.450       .  S
C688        C691   1.449       .  S
C689        N696   1.157   1_455  T
C690        N695   1.157       .  T
C691        N693   1.157       .  T
C692        N694   1.157       .  T
C697        C698   1.415       .  A
C697        C702   1.412   1_545  A
C698        C699   1.414       .  A
C698        C703   1.451       .  S
C699        C700   1.416       .  A
C699        C706   1.451       .  S
C700        C701   1.412       .  A
C701        C702   1.407   1_545  A
C701        C704   1.451   1_545  S
C702        C705   1.448       .  S
C703        N710   1.157       .  T
C704        N709   1.157       .  T
C705        N707   1.157       .  T
C706        N708   1.157       .  T
C711        C712   1.413       .  A
C711        C716   1.415       .  A
C712        C713   1.412       .  A
C712        C717   1.454       .  S
C713        C714   1.424       .  A
C713        C720   1.447       .  S
C714        C715   1.424       .  A
C715        C716   1.415       .  A
C715        C718   1.450       .  S
C716        C719   1.452       .  S
C717        N724   1.158       .  T
C718        N723   1.157       .  T
C719        N721   1.157       .  T
C720        N722   1.156       .  T
C725        C726   1.417   1_565  A
C725        C730   1.415       .  A
C726        C727   1.414       .  A
C726        C731   1.450       .  S
C727        C728   1.409       .  A
C727        C734   1.450       .  S
C728        C729   1.412   1_545  A
C729        C730   1.411       .  A
C729        C732   1.452       .  S
C730        C733   1.452       .  S
C731        N738   1.157       .  T
C732        N737   1.157       .  T
C733        N735   1.157       .  T
C734        N736   1.157       .  T
C739        C740   1.416       .  A
C739        C744   1.414   1_655  A
C740        C741   1.418       .  A
C740        C745   1.450       .  S
C741        C742   1.412   1_655  A
C741        C748   1.449       .  S
C742        C743   1.414       .  A
C743        C744   1.415       .  A
C743        C746   1.451       .  S
C744        C747   1.451       .  S
C745        N752   1.157       .  T
C746        N751   1.157       .  T
C747        N749   1.157       .  T
C748        N750   1.157       .  T
C753        C754   1.420       .  A
C753        C758   1.420       .  A
C754        C755   1.411       .  A
C754        C759   1.452   1_565  S
C755        C756   1.411       .  A
C755        C762   1.452       .  S
C756        C757   1.409       .  A
C757        C758   1.415       .  A
C757        C760   1.450       .  S
C758        C761   1.451       .  S
C759        N766   1.158       .  T
C760        N765   1.157       .  T
C761        N763   1.157       .  T
C762        N764   1.157   1_565  T
C767        C768   1.422       .  A
C767        C772   1.423       .  A
C768        C769   1.415       .  A
C768        C773   1.451       .  S
C769        C770   1.412       .  A
C769        C776   1.452       .  S
C770        C771   1.412       .  A
C771        C772   1.420       .  A
C771        C774   1.451       .  S
C772        C775   1.450   1_455  S
C773        N780   1.157       .  T
C774        N779   1.157       .  T
C775        N777   1.157       .  T
C776        N778   1.157       .  T
C781        C782   1.421       .  A
C781        C786   1.420       .  A
C782        C783   1.414       .  A
C782        C787   1.452       .  S
C783        C784   1.412       .  A
C783        C790   1.452       .  S
C784        C785   1.412       .  A
C785        C786   1.418       .  A
C785        C788   1.450       .  S
C786        C789   1.450   1_655  S
C787        N794   1.157       .  T
C788        N793   1.157       .  T
C789        N791   1.157       .  T
C790        N792   1.157       .  T
C795        C796   1.413       .  A
C795        C800   1.412   1_655  A
C796        C797   1.417       .  A
C796        C801   1.450       .  S
C797        C798   1.414       .  A
C797        C804   1.450       .  S
C798        C799   1.415   1_655  A
C799        C800   1.415       .  A
C799        C802   1.451       .  S
C800        C803   1.450       .  S
C801        N808   1.157       .  T
C802        N807   1.157       .  T
C803        N805   1.157       .  T
C804        N806   1.157       .  T
C809        C810   1.420       .  A
C809        C814   1.418       .  A
C810        C811   1.409       .  A
C810        C815   1.452       .  S
C811        C812   1.411       .  A
C811        C818   1.453       .  S
C812        C813   1.411       .  A
C813        C814   1.411       .  A
C813        C816   1.451       .  S
C814        C817   1.451       .  S
C815        N822   1.158       .  T
C816        N821   1.157       .  T
C817        N819   1.157       .  T
C818        N820   1.157       .  T
C823        C824   1.413       .  A
C823        C828   1.413       .  A
C824        C825   1.414       .  A
C824        C829   1.450       .  S
C825        C826   1.419       .  A
C825        C832   1.451       .  S
C826        C827   1.419       .  A
C827        C828   1.413       .  A
C827        C830   1.451       .  S
C828        C831   1.451       .  S
C829        N836   1.157       .  T
C830        N835   1.157       .  T
C831        N833   1.157       .  T
C832        N834   1.157       .  T
C837        C838   1.421       .  A
C837        C842   1.429       .  A
C838        C839   1.409       .  A
C838        C843   1.448       .  S
C839        C840   1.409       .  A
C839        C846   1.451       .  S
C840        C841   1.411       .  A
C841        C842   1.417       .  A
C841        C844   1.450       .  S
C842        C845   1.451       .  S
C843        N850   1.157       .  T
C844        N849   1.157       .  T
C845        N847   1.158       .  T
C846        N848   1.157       .  T
C851        C852   1.416       .  A
C851        C856   1.413       .  A
C852        C853   1.414       .  A
C852        C857   1.450       .  S
C853        C854   1.414       .  A
C853        C860   1.451       .  S
C854        C855   1.412       .  A
C855        C856   1.410       .  A
C855        C858   1.450       .  S
C856        C859   1.450       .  S
C857        N864   1.157       .  T
C858        N863   1.157       .  T
C859        N861   1.157       .  T
C860        N862   1.157       .  T
C865        C866   1.421       .  A
C865        C870   1.425       .  A
C866        C867   1.410       .  A
C866        C871   1.452       .  S
C867        C868   1.413       .  A
C867        C874   1.450       .  S
C868        C869   1.414       .  A
C869        C870   1.418       .  A
C869        C872   1.452       .  S
C870        C873   1.448       .  S
C871        N878   1.157       .  T
C872        N877   1.157       .  T
C873        N875   1.157       .  T
C874        N876   1.156       .  T
C879        C880   1.414       .  A
C879        C884   1.414       .  A
C880        C881   1.411       .  A
C880        C885   1.450       .  S
C881        C882   1.413       .  A
C881        C888   1.451       .  S
C882        C883   1.414       .  A
C883        C884   1.416       .  A
C883        C886   1.449       .  S
C884        C887   1.450       .  S
C885        N892   1.157       .  T
C886        N891   1.157       .  T
C887        N889   1.157       .  T
C888        N890   1.157       .  T
C893        C894   1.414       .  A
C893        C898   1.416       .  A
C894        C895   1.411       .  A
C894        C899   1.451       .  S
C895        C896   1.411       .  A
C895        C902   1.451       .  S
C896        C897   1.411       .  A
C897        C898   1.413       .  A
C897        C900   1.451       .  S
C898        C901   1.451       .  S
C899        N906   1.157       .  T
C900        N905   1.157       .  T
C901        N903   1.157       .  T
C902        N904   1.157       .  T
C907        C908   1.416       .  A
C907        C912   1.413       .  A
C908        C909   1.413       .  A
C908        C913   1.451       .  S
C909        C910   1.408       .  A
C909        C916   1.450       .  S
C910        C911   1.412       .  A
C911        C912   1.407       .  A
C911        C914   1.453       .  S
C912        C915   1.452       .  S
C913        N920   1.157       .  T
C914        N919   1.157       .  T
C915        N917   1.157       .  T
C916        N918   1.157       .  T
C921        C922   1.415       .  A
C921        C926   1.418       .  A
C922        C923   1.412       .  A
C922        C927   1.452       .  S
C923        C924   1.413       .  A
C923        C930   1.451       .  S
C924        C925   1.411       .  A
C925        C926   1.417       .  A
C925        C928   1.450       .  S
C926        C929   1.450       .  S
C927        N934   1.157       .  T
C928        N933   1.157       .  T
C929        N931   1.157       .  T
C930        N932   1.157       .  T
C935        C936   1.419       .  A
C935        C940   1.419       .  A
C936        C937   1.414       .  A
C936        C941   1.452       .  S
C937        C938   1.416       .  A
C937        C944   1.451       .  S
C938        C939   1.416       .  A
C939        C940   1.417       .  A
C939        C942   1.451       .  S
C940        C943   1.451       .  S
C941        N948   1.157       .  T
C942        N947   1.157       .  T
C943        N945   1.158       .  T
C944        N946   1.157       .  T
C949        C950   1.414       .  A
C949        C954   1.412       .  A
C950        C951   1.413       .  A
C950        C955   1.450       .  S
C951        C952   1.413       .  A
C951        C958   1.450       .  S
C952        C953   1.415       .  A
C953        C954   1.412       .  A
C953        C956   1.451       .  S
C954        C957   1.451       .  S
C955        N962   1.157       .  T
C956        N961   1.157       .  T
C957        N959   1.157       .  T
C958        N960   1.157       .  T
C963        C964   1.413       .  A
C963        C968   1.410       .  A
C964        C965   1.415       .  A
C964        C969   1.450       .  S
C965        C966   1.414       .  A
C965        C972   1.451       .  S
C966        C967   1.415       .  A
C967        C968   1.412       .  A
C967        C970   1.451       .  S
C968        C971   1.450       .  S
C969        N976   1.157       .  T
C970        N975   1.157       .  T
C971        N973   1.157       .  T
C972        N974   1.157       .  T
C977        C978   1.425       .  A
C977        C982   1.424       .  A
C978        C979   1.417       .  A
C978        C983   1.447       .  S
C979        C980   1.412       .  A
C979        C986   1.453       .  S
C980        C981   1.410       .  A
C981        C982   1.411       .  A
C981        C984   1.450       .  S
C982        C985   1.452       .  S
C983        N990   1.157       .  T
C984        N989   1.157       .  T
C985        N987   1.157       .  T
C986        N988   1.157       .  T
C991        C992   1.417       .  A
C991        C996   1.413       .  A
C992        C993   1.415       .  A
C992        C997   1.451       .  S
C993        C994   1.413       .  A
C993       C1000   1.450       .  S
C994        C995   1.413       .  A
C995        C996   1.408       .  A
C995        C998   1.452       .  S
C996        C999   1.450       .  S
C997       N1004   1.157       .  T
C998       N1003   1.157       .  T
C999       N1001   1.157       .  T
C1000      N1002   1.157       .  T
C1005      C1006   1.416       .  A
C1005      C1010   1.412       .  A
C1006      C1007   1.418       .  A
C1006      C1011   1.453       .  S
C1007      C1008   1.427       .  A
C1007      C1014   1.448       .  S
C1008      C1009   1.425       .  A
C1009      C1010   1.410       .  A
C1009      C1012   1.452       .  S
C1010      C1013   1.452       .  S
C1011      N1018   1.157       .  T
C1012      N1017   1.158       .  T
C1013      N1015   1.157       .  T
C1014      N1016   1.157       .  T
C1019      C1020   1.414       .  A
C1019      C1024   1.417       .  A
C1020      C1021   1.410       .  A
C1020      C1025   1.451       .  S
C1021      C1022   1.413       .  A
C1021      C1028   1.451       .  S
C1022      C1023   1.413       .  A
C1023      C1024   1.414       .  A
C1023      C1026   1.450       .  S
C1024      C1027   1.450       .  S
C1025      N1032   1.157       .  T
C1026      N1031   1.157       .  T
C1027      N1029   1.157       .  T
C1028      N1030   1.157       .  T
C1033      C1034   1.425       .  A
C1033      C1038   1.428       .  A
C1034      C1035   1.410       .  A
C1034      C1039   1.447       .  S
C1035      C1036   1.407       .  A
C1035      C1042   1.451       .  S
C1036      C1037   1.414       .  A
C1037      C1038   1.420       .  A
C1037      C1040   1.451       .  S
C1038      C1041   1.451       .  S
C1039      N1046   1.156       .  T
C1040      N1045   1.157       .  T
C1041      N1043   1.158       .  T
C1042      N1044   1.157       .  T
C1047      C1048   1.414       .  A
C1047      C1052   1.416       .  A
C1048      C1049   1.409       .  A
C1048      C1053   1.449       .  S
C1049      C1050   1.411       .  A
C1049      C1056   1.451       .  S
C1050      C1051   1.413       .  A
C1051      C1052   1.413       .  A
C1051      C1054   1.451       .  S
C1052      C1055   1.449       .  S
C1053      N1060   1.157       .  T
C1054      N1059   1.157       .  T
C1055      N1057   1.157       .  T
C1056      N1058   1.157       .  T
C1061      C1062   1.411       .  A
C1061      C1066   1.408       .  A
C1062      C1063   1.408       .  A
C1062      C1067   1.452       .  S
C1063      C1064   1.414       .  A
C1063      C1070   1.452       .  S
C1064      C1065   1.415       .  A
C1065      C1066   1.411       .  A
C1065      C1068   1.450       .  S
C1066      C1069   1.450       .  S
C1067      N1074   1.157       .  T
C1068      N1073   1.157       .  T
C1069      N1071   1.157       .  T
C1070      N1072   1.158       .  T
C1075      C1076   1.414       .  A
C1075      C1080   1.417       .  A
C1076      C1077   1.409       .  A
C1076      C1081   1.452       .  S
C1077      C1078   1.412       .  A
C1077      C1084   1.452       .  S
C1078      C1079   1.407       .  A
C1079      C1080   1.410       .  A
C1079      C1082   1.450       .  S
C1080      C1083   1.451       .  S
C1081      N1088   1.158       .  T
C1082      N1087   1.157       .  T
C1083      N1085   1.157       .  T
C1084      N1086   1.157       .  T
C1089      C1090   1.416       .  A
C1089      C1094   1.412       .  A
C1090      C1091   1.415       .  A
C1090      C1095   1.451       .  S
C1091      C1092   1.410       .  A
C1091      C1098   1.449       .  S
C1092      C1093   1.413       .  A
C1093      C1094   1.411       .  A
C1093      C1096   1.451       .  S
C1094      C1097   1.452       .  S
C1095      N1102   1.157       .  T
C1096      N1101   1.157       .  T
C1097      N1099   1.157       .  T
C1098      N1100   1.157       .  T
C1103      C1104   1.414       .  A
C1103      C1108   1.413       .  A
C1104      C1105   1.413       .  A
C1104      C1109   1.451       .  S
C1105      C1106   1.416       .  A
C1105      C1112   1.451       .  S
C1106      C1107   1.411       .  A
C1107      C1108   1.408       .  A
C1107      C1110   1.451       .  S
C1108      C1111   1.449       .  S
C1109      N1116   1.157       .  T
C1110      N1115   1.157       .  T
C1111      N1113   1.157       .  T
C1112      N1114   1.157       .  T
C1117      C1118   1.423       .  A
C1117      C1122   1.428       .  A
C1118      C1119   1.407       .  A
C1118      C1123   1.447       .  S
C1119      C1120   1.407       .  A
C1119      C1126   1.447       .  S
C1120      C1121   1.415       .  A
C1121      C1122   1.419       .  A
C1121      C1124   1.451       .  S
C1122      C1125   1.450       .  S
C1123      N1130   1.156       .  T
C1124      N1129   1.157       .  T
C1125      N1127   1.158       .  T
C1126      N1128   1.155       .  T
C1131      C1132   1.415       .  A
C1131      C1136   1.418       .  A
C1132      C1133   1.408       .  A
C1132      C1137   1.452       .  S
C1133      C1134   1.411       .  A
C1133      C1140   1.452       .  S
C1134      C1135   1.409       .  A
C1135      C1136   1.414       .  A
C1135      C1138   1.450       .  S
C1136      C1139   1.451       .  S
C1137      N1144   1.157       .  T
C1138      N1143   1.157       .  T
C1139      N1141   1.157       .  T
C1140      N1142   1.157       .  T
