geometry optimzed in LAMMPS
_audit_creation_date              2020-11-30 
_audit_creation_method            'lammps2cif' 
_symmetry_space_group_name_H-M    'P1' 
_symmetry_Int_Tables_number       1 
_symmetry_cell_setting            triclinic 
loop_ 
_symmetry_equiv_pos_as_xyz 
  x,y,z 
_cell_length_a                    32.75022838 
_cell_length_b                    30.647382439794864 
_cell_length_c                    26.789756586650235 
_cell_angle_alpha                 95.42082672820204 
_cell_angle_beta                  86.65036263501585 
_cell_angle_gamma                 86.45727845654766 
loop_ 
_atom_site_label 
_atom_site_type_symbol 
_atom_site_fract_x 
_atom_site_fract_y 
_atom_site_fract_z 
_atom_site_charge 
O1          O  0.03364018  0.50629082  0.42597253    -0.74600
O2          O  0.03402763  0.49663044  0.07008281    -0.74600
O3          O  0.03378153  0.43885332  0.48518396    -0.74600
O4          O  0.03357540  0.56418067  0.51090728    -0.74700
O5          O  0.96525927  0.56878276  0.01713353    -0.74600
O6          O  0.96546094  0.44408538  0.99128814    -0.74600
O7          O  0.96580432  0.50143719  0.07586560    -0.74600
O8          O  0.96542878  0.51124597  0.43163749    -0.74600
Ni9        Ni  0.03616624  0.50134725  0.49780527     1.25400
Ni10       Ni  0.96312077  0.50657409  0.00407593     1.25400
C11         C  0.99950561  0.50956447  0.40469171     0.87600
C12         C  0.00000986  0.49809295  0.09702254     0.87600
C13         C  0.99947701  0.42083218  0.98397418     0.87600
C14         C  0.99932429  0.58705094  0.51947451     0.87800
O15         O  0.03371201  0.50722121  0.32136843    -0.74600
O16         O  0.03421995  0.49629766  0.17496256    -0.74600
O17         O  0.03282155  0.56476048  0.24748244    -0.74600
O18         O  0.03531201  0.43863526  0.24839633    -0.74700
O19         O  0.96718272  0.44222663  0.25288013    -0.74600
O20         O  0.96465771  0.56871259  0.25341275    -0.74600
O21         O  0.96602547  0.50046819  0.18023320    -0.74600
O22         O  0.96554407  0.51050802  0.32647851    -0.74600
Ni23       Ni  0.03636749  0.50162215  0.24795538     1.25400
Ni24       Ni  0.96349930  0.50558273  0.25348655     1.25400
C25         C  0.99956517  0.50962227  0.34822028     0.87600
C26         C  0.00013021  0.49773061  0.15335199     0.87600
C27         C  0.99845521  0.58753307  0.24858228     0.87600
C28         C  0.00160959  0.41945365  0.25139048     0.87800
O29         O  0.10715808  0.96358201  0.48301412    -0.81000
O30         O  0.90961097  0.97809430  0.47493755    -0.65700
O31         O  0.02662098  0.99553119  0.46706772    -1.12300
C32         C  0.99272328  0.05339502  0.11879161     1.05900
O33         O  0.88820213  0.04148246  0.01929378    -0.78900
O34         O  0.95298616  0.09088528  0.00446184    -0.66500
Ni35       Ni  0.06327751  0.94486826  0.44432756     1.34900
C36         C  0.98985349  0.10089182  0.99710668     0.84600
O37         O  0.96689447  0.96107324  0.40129687    -0.79500
O38         O  0.02326664  0.92313131  0.40243410    -0.89700
C39         C  0.88114517  0.00612707  0.49344477     0.84200
O40         O  0.04262135  0.91418889  0.49791911    -0.67900
O41         O  0.97219151  0.08268892  0.09970940    -0.87200
C42         C  0.00564864  0.90493881  0.50638420     0.85000
C43         C  0.00285027  0.95264066  0.38351467     1.06600
H44         H  0.96176717  0.98571028  0.05368523     0.38400
O45         O  0.96912149  0.00992131  0.03551517    -1.09900
O46         O  0.02052488  0.07851767  0.01168472    -0.66500
Ni47       Ni  0.02833993  0.01979230  0.03356272     1.26300
O48         O  0.97511613  0.92702140  0.49112821    -0.66800
O49         O  0.02874181  0.04492553  0.10115946    -0.79000
C50         C  0.11468475  0.99903313  0.00814740     0.84400
O51         O  0.08648652  0.02701225  0.02779660    -0.66200
Ni52       Ni  0.93218201  0.06047135  0.05802400     1.27400
Ni53       Ni  0.96746747  0.98570653  0.46906876     1.26100
H54         H  0.03394232  0.01971791  0.44883162     0.38900
O55         O  0.09903984  0.98015704  0.17838650    -0.81000
O56         O  0.90432199  0.99409149  0.24507293    -0.65700
O57         O  0.01777852  0.01607399  0.21280274    -1.12300
C58         C  0.02360747  0.98976079  0.36652616     1.05900
O59         O  0.89696483  0.02653319  0.32322179    -0.78900
O60         O  0.96211309  0.07932907  0.31304563    -0.66500
Ni61       Ni  0.04378308  0.97948646  0.15656047     1.34900
C62         C  0.99741958  0.09208792  0.30076266     0.84600
O63         O  0.94221415  0.02295777  0.16682284    -0.79500
O64         O  0.99126938  0.97912570  0.13244053    -0.89700
C65         C  0.88197129  0.00834624  0.28420291     0.84200
O66         O  0.03443397  0.92829909  0.19038728    -0.67900
O67         O  0.00456423  0.02711885  0.36990709    -0.87200
C68         C  0.99923319  0.91484441  0.20130260     0.85000
C69         C  0.97203834  0.01634222  0.13565616     1.06600
H70         H  0.97469821  0.96013252  0.29347014     0.38400
O71         O  0.97803592  0.99064071  0.28911451    -1.09900
O72         O  0.02959524  0.06532445  0.29620613    -0.66500
Ni73       Ni  0.03592778  0.00170451  0.27385149     1.26300
O74         O  0.96664973  0.94097880  0.20527138    -0.66800
O75         O  0.05329802  0.98307993  0.33512993    -0.79000
C76         C  0.11403847  0.99673578  0.21817186     0.84400
O77         O  0.09164756  0.01147122  0.25705521    -0.66200
Ni78       Ni  0.95217546  0.02730454  0.34543926     1.27400
Ni79       Ni  0.95982654  0.00463333  0.22803724     1.26100
H80         H  0.02099282  0.04666266  0.20851512     0.38900
O81         O  0.50024951  0.95613452  0.07482805    -0.74600
O82         O  0.49479037  0.95624696  0.42993965    -0.74600
O83         O  0.55626865  0.94986337  0.99416660    -0.74600
O84         O  0.43868966  0.96287921  0.01089182    -0.74700
O85         O  0.44067248  0.03559224  0.51735636    -0.74600
O86         O  0.55783151  0.02287400  0.50368469    -0.74600
O87         O  0.49732197  0.02894760  0.43738309    -0.74600
O88         O  0.50099011  0.02902563  0.08267176    -0.74600
Ni89       Ni  0.49738081  0.95372183  0.00212967     1.25400
Ni90       Ni  0.49931943  0.03163371  0.51038785     1.25400
C91         C  0.50123994  0.99251706  0.10282958     0.87600
C92         C  0.49533737  0.99258213  0.40954408     0.87600
C93         C  0.57633251  0.98452493  0.49742739     0.87600
C94         C  0.42020468  0.00136393  0.01713607     0.87800
O95         O  0.49759767  0.95580986  0.32494238    -0.74600
O96         O  0.50410740  0.95584454  0.17909404    -0.74600
O97         O  0.55946614  0.95695309  0.25287705    -0.74600
O98         O  0.44235283  0.95448132  0.25108586    -0.74700
O99         O  0.43676264  0.02758714  0.25892945    -0.74600
O100        O  0.55353607  0.02999079  0.26125688    -0.74600
O101        O  0.49867145  0.02894050  0.18739006    -0.74600
O102        O  0.49189574  0.02889301  0.33306923    -0.74600
Ni103      Ni  0.50109958  0.95320263  0.25171572     1.25400
Ni104      Ni  0.49497557  0.03136938  0.26047284     1.25000
C105        C  0.49460595  0.99241299  0.35320301     0.87600
C106        C  0.50167435  0.99241929  0.15907820     0.87600
C107        C  0.57584800  0.99390716  0.25866603     0.87600
C108        C  0.42026408  0.99070896  0.25326092     0.87800
C109        C  0.21960692  0.02350097  0.26005920    -0.27700
C110        C  0.24532510  0.99361413  0.22783276     0.01900
C111        C  0.22792935  0.96595865  0.19103423     0.29900
C112        C  0.18535114  0.96834355  0.18705220    -0.19500
C113        C  0.15932066  0.99761831  0.22008664    -0.28900
C114        C  0.17708252  0.02570679  0.25651555     0.44000
C115        C  0.29025732  0.99212489  0.23284690     0.05200
O116        O  0.25224271  0.93648829  0.15876494    -0.57500
H117        H  0.17263487  0.94643437  0.15877399     0.18100
O118        O  0.15326217  0.05527016  0.28926639    -0.64200
H119        H  0.23258760  0.04495294  0.28857952     0.16500
C120        C  0.31223290  0.02930488  0.22599680     0.28800
C121        C  0.35427291  0.02829806  0.23314644    -0.25100
C122        C  0.37535700  0.99042974  0.24722945    -0.24300
C123        C  0.35331778  0.95282859  0.25324401     0.40300
C124        C  0.31109542  0.95399664  0.24625362    -0.26800
O125        O  0.29305351  0.06634370  0.21065622    -0.58700
H126        H  0.37049504  0.05727034  0.22700063     0.15900
O127        O  0.37232095  0.91527966  0.26754566    -0.60100
H128        H  0.29443313  0.92522762  0.25200435     0.14300
H129        H  0.14939206  0.08187919  0.27122324     0.46200
H130        H  0.28794303  0.08703380  0.24146758     0.41600
H131        H  0.37768857  0.89536095  0.23614262     0.45000
H132        H  0.26527209  0.95433515  0.13409673     0.36500
C133        C  0.76761916  0.01119270  0.32413940    -0.27700
C134        C  0.75131426  0.99568545  0.27906925     0.01900
C135        C  0.77793564  0.98355967  0.23629162     0.29900
C136        C  0.82013958  0.98778448  0.23862189    -0.19500
C137        C  0.83685091  0.00368663  0.28357282    -0.28900
C138        C  0.80995066  0.01471670  0.32681001     0.44000
C139        C  0.70634045  0.99464962  0.27594040     0.05200
O140        O  0.76267639  0.96971370  0.19130319    -0.57500
H141        H  0.83972094  0.97900839  0.20471150     0.18100
O142        O  0.82447942  0.02912275  0.37192150    -0.64200
H143        H  0.74741794  0.02068758  0.35739289     0.16500
C144        C  0.68770042  0.95483101  0.26646348     0.28800
C145        C  0.64545473  0.95506622  0.26031755    -0.25100
C146        C  0.62092498  0.99478816  0.26380283    -0.24300
C147        C  0.63986761  0.03466186  0.27416956     0.40300
C148        C  0.68206547  0.03423403  0.28040941    -0.26800
O149        O  0.71055060  0.91550832  0.26318401    -0.58700
H150        H  0.63191255  0.92392411  0.25301224     0.15900
O151        O  0.61752649  0.07434418  0.27903125    -0.60100
H152        H  0.69608493  0.06510428  0.28786580     0.14300
H153        H  0.83613341  0.00217715  0.38501068     0.46200
H154        H  0.70855650  0.90598624  0.29755662     0.41600
H155        H  0.61968883  0.08496428  0.24519460     0.45000
H156        H  0.76784867  0.93731040  0.18752770     0.36500
C157        C  0.22975075  0.99141686  0.98158474    -0.27700
C158        C  0.24324637  0.01239235  0.02558321     0.01900
C159        C  0.21421831  0.03266816  0.56290480     0.29900
C160        C  0.17205324  0.02963361  0.55673122    -0.19500
C161        C  0.15861304  0.00660481  0.01342593    -0.28900
C162        C  0.18808765  0.98846999  0.97517050     0.44000
C163        C  0.28792671  0.01126730  0.03131427     0.05200
O164        O  0.22661621  0.05529536  0.60539444    -0.57500
H165        H  0.14999518  0.04412305  0.58630246     0.18100
O166        O  0.17645627  0.96857072  0.93062302    -0.64200
H167        H  0.25181415  0.97679245  0.95203953     0.16500
C168        C  0.31019849  0.97082913  0.03351316     0.28800
C169        C  0.35304520  0.96849619  0.03055400    -0.25100
C170        C  0.37465607  0.00599234  0.02406603    -0.24300
C171        C  0.35212246  0.04683908  0.52331461     0.40300
C172        C  0.30910559  0.04920146  0.52731824    -0.26800
O173        O  0.29019230  0.93318405  0.03775635    -0.58700
H174        H  0.36932642  0.93683719  0.03205807     0.15900
O175        O  0.37157489  0.08452348  0.51722729    -0.60100
H176        H  0.29224285  0.08039156  0.52483758     0.14300
H177        H  0.18141329  0.93657070  0.93285288     0.46200
H178        H  0.29100340  0.91828307  0.00316824     0.41600
H179        H  0.37517833  0.08565137  0.48035848     0.45000
H180        H  0.23718211  0.03256669  0.62617540     0.36500
C181        C  0.68442797  0.00205443  0.03170869    -0.27700
C182        C  0.70763324  0.98187759  0.48906659     0.01900
C183        C  0.68743802  0.95891390  0.45072015     0.29900
C184        C  0.64449445  0.95810693  0.45453123    -0.19500
C185        C  0.62143348  0.98082096  0.49582297    -0.28900
C186        C  0.64174924  0.00194947  0.03504866     0.44000
C187        C  0.75240328  0.98739649  0.48454349     0.05200
O188        O  0.70921669  0.93856394  0.40875366    -0.57500
H189        H  0.62912460  0.94145317  0.42423013     0.18100
O190        O  0.62004666  0.02324171  0.07660492    -0.64200
H191        H  0.69948621  0.01882041  0.06221112     0.16500
C192        C  0.76686454  0.02974720  0.49046727     0.28800
C193        C  0.80884506  0.03497753  0.49116305    -0.25100
C194        C  0.83748378  0.99847532  0.48616450    -0.24300
C195        C  0.82318916  0.95601156  0.47812154     0.40300
C196        C  0.78087593  0.95075073  0.47720008    -0.26800
O197        O  0.74005364  0.06636599  0.49495166    -0.58700
H198        H  0.81895231  0.06801796  0.49629495     0.15900
O199        O  0.85000661  0.91945523  0.97289834    -0.60100
H200        H  0.77022162  0.91793271  0.47267792     0.14300
H201        H  0.61459820  0.00003602  0.09907328     0.46200
H202        H  0.74003762  0.07871077  0.53054696     0.41600
H203        H  0.85318701  0.91145777  0.00754932     0.45000
H204        H  0.70594231  0.95903929  0.38253013     0.36500
C205        C  0.02998954  0.69928901  0.21188715    -0.27700
C206        C  0.99537496  0.72751715  0.22853863     0.01900
C207        C  0.96146433  0.70912161  0.25170884     0.29900
C208        C  0.96275247  0.66387472  0.25807798    -0.19500
C209        C  0.99784566  0.63586419  0.24246101    -0.28900
C210        C  0.03154002  0.65431625  0.21880588     0.44000
C211        C  0.99559476  0.77589608  0.22230473     0.05200
O212        O  0.92702325  0.73511774  0.26903261    -0.57500
H213        H  0.93627508  0.65078854  0.27596881     0.18100
O214        O  0.06614731  0.62863274  0.20138653    -0.64200
H215        H  0.05606961  0.71208472  0.19281120     0.16500
C216        C  0.02893838  0.80021057  0.23690220     0.28800
C217        C  0.02935814  0.84508385  0.22993132    -0.25100
C218        C  0.99672691  0.86728074  0.20886824    -0.24300
C219        C  0.96320324  0.84322769  0.19444741     0.40300
C220        C  0.96286774  0.79808734  0.20104930    -0.26800
O221        O  0.06054910  0.78083569  0.26019446    -0.58700
H222        H  0.05530177  0.86281018  0.24181478     0.15900
O223        O  0.93100407  0.86316336  0.17280688    -0.60100
H224        H  0.93719603  0.78019061  0.18866730     0.14300
H225        H  0.06069655  0.61685805  0.16681610     0.46200
H226        H  0.08454542  0.77861282  0.23550229     0.41600
H227        H  0.93963773  0.86175578  0.13654826     0.45000
H228        H  0.93311346  0.74820856  0.30284303     0.36500
C229        C  0.96846235  0.30167743  0.25505173    -0.27700
C230        C  0.00449271  0.27858280  0.26723348     0.01900
C231        C  0.04032709  0.30187088  0.27097853     0.29900
C232        C  0.03915199  0.34714533  0.26441536    -0.19500
C233        C  0.00257623  0.37058303  0.25449244    -0.28900
C234        C  0.96719039  0.34683853  0.24904053     0.44000
C235        C  0.00369189  0.23077500  0.27673345     0.05200
O236        O  0.07664917  0.28071833  0.28117419    -0.57500
H237        H  0.06699289  0.36414229  0.26832371     0.18100
O238        O  0.93086279  0.36734725  0.23808652    -0.64200
H239        H  0.94083040  0.28457417  0.24995371     0.16500
C240        C  0.97159248  0.21603010  0.30704766     0.28800
C241        C  0.97022734  0.17125491  0.31432619    -0.25100
C242        C  0.00087237  0.13973033  0.29280203    -0.24300
C243        C  0.03333891  0.15441281  0.26292544     0.40300
C244        C  0.03441303  0.19926576  0.25495986    -0.26800
O245        O  0.94211018  0.24549881  0.33150896    -0.58700
H246        H  0.94488927  0.16132017  0.33739589     0.15900
O247        O  0.06385455  0.12518466  0.24043775    -0.60100
H248        H  0.05905317  0.20919307  0.23071100     0.14300
H249        H  0.93098763  0.36396285  0.20089150     0.46200
H250        H  0.91625071  0.23912659  0.31559946     0.41600
H251        H  0.05598517  0.11835658  0.20550851     0.45000
H252        H  0.08519499  0.29639399  0.31253869     0.36500
C253        C  0.96516256  0.70487650  0.06870594    -0.27700
C254        C  0.99729887  0.72762193  0.54898703     0.01900
C255        C  0.03122110  0.70361199  0.52240154     0.29900
C256        C  0.03207751  0.65782774  0.51458818    -0.19500
C257        C  0.99904875  0.63515733  0.53203760    -0.28900
C258        C  0.96586098  0.65900194  0.06055878     0.44000
C259        C  0.99371923  0.77621183  0.55108860     0.05200
O260        O  0.06291659  0.72470820  0.50183160    -0.57500
H261        H  0.05795967  0.64018586  0.49293366     0.18100
O262        O  0.93378251  0.63795344  0.08022765    -0.64200
H263        H  0.93909560  0.72286635  0.08962033     0.16500
C264        C  0.96120619  0.79779934  0.52892168     0.28800
C265        C  0.96341397  0.84171885  0.51941475    -0.25100
C266        C  0.99835313  0.86428506  0.53043203    -0.24300
C267        C  0.02868790  0.84400118  0.05748653     0.40300
C268        C  0.02604824  0.80036835  0.06784541    -0.26800
O269        O  0.92888712  0.77525371  0.51235087    -0.58700
H270        H  0.93940859  0.85668076  0.49918867     0.15900
O271        O  0.06262812  0.86530203  0.07077580    -0.60100
H272        H  0.05079168  0.78443348  0.08602337     0.14300
H273        H  0.94169925  0.63139132  0.11404782     0.46200
H274        H  0.93710901  0.76406006  0.47701004     0.41600
H275        H  0.05350160  0.88467516  0.10161745     0.45000
H276        H  0.05379921  0.73264247  0.46900383     0.36500
C277        C  0.96840341  0.20904864  0.44346339    -0.27700
C278        C  0.00221300  0.23164918  0.95852293     0.01900
C279        C  0.03493206  0.20867368  0.97868185     0.29900
C280        C  0.03214527  0.16448808  0.98674315    -0.19500
C281        C  0.99673690  0.14278395  0.97561368    -0.28900
C282        C  0.96554422  0.16493845  0.45144631     0.44000
C283        C  0.00031658  0.28012540  0.96000162     0.05200
O284        O  0.06749286  0.23037759  0.99604077    -0.57500
H285        H  0.05639193  0.14840196  0.00558549     0.18100
O286        O  0.93063653  0.14502246  0.43893173    -0.64200
H287        H  0.94302175  0.22637245  0.42795151     0.16500
C288        C  0.03216906  0.30237019  0.43812830     0.28800
C289        C  0.03157029  0.34825256  0.44595504    -0.25100
C290        C  0.99898475  0.37256492  0.97450860    -0.24300
C291        C  0.96634134  0.35024573  0.99446172     0.40300
C292        C  0.96718813  0.30450196  0.98702579    -0.26800
O293        O  0.06434011  0.27963720  0.40993123    -0.58700
H294        H  0.05659539  0.36485616  0.42961780     0.15900
O295        O  0.93410775  0.37262634  0.02287600    -0.60100
H296        H  0.94254860  0.28786037  0.00419655     0.14300
H297        H  0.93957611  0.12178690  0.41149444     0.46200
H298        H  0.05203528  0.26404407  0.38094633     0.41600
H299        H  0.94205028  0.37326312  0.05809254     0.45000
H300        H  0.09129721  0.21931352  0.97271582     0.36500
O301        O  0.03361090  0.50629186  0.92597550    -0.74600
O302        O  0.03404147  0.49668772  0.57009418    -0.74600
O303        O  0.03375909  0.43882772  0.98514760    -0.74600
O304        O  0.03354940  0.56414483  0.01093666    -0.74700
O305        O  0.96528549  0.56881702  0.51709688    -0.74600
O306        O  0.96548383  0.44410795  0.49131490    -0.74600
O307        O  0.96581818  0.50149294  0.57586523    -0.74600
O308        O  0.96539952  0.51124731  0.93164588    -0.74600
Ni309      Ni  0.03614325  0.50131753  0.99780069     1.25400
Ni310      Ni  0.96314414  0.50660255  0.50407103     1.25400
C311        C  0.99947541  0.50957564  0.90469859     0.87600
C312        C  0.00002045  0.49815296  0.59702865     0.87600
C313        C  0.99950076  0.42085424  0.48401064     0.87600
C314        C  0.99929851  0.58701348  0.01951514     0.87800
O315        O  0.03368618  0.50726107  0.82138218    -0.74600
O316        O  0.03421769  0.49635193  0.67497605    -0.74600
O317        O  0.03280936  0.56480656  0.74750039    -0.74600
O318        O  0.03529503  0.43868503  0.74840190    -0.74700
O319        O  0.96716595  0.44227457  0.75286678    -0.74600
O320        O  0.96464504  0.56875957  0.75342425    -0.74600
O321        O  0.96602307  0.50052821  0.68023205    -0.74600
O322        O  0.96551843  0.51054216  0.82648051    -0.74600
Ni323      Ni  0.03635298  0.50166989  0.74796921     1.25400
Ni324      Ni  0.96348457  0.50563038  0.75348594     1.25400
C325        C  0.99953693  0.50965268  0.84822823     0.87600
C326        C  0.00013179  0.49779074  0.65335830     0.87600
C327        C  0.99844335  0.58757791  0.74859294     0.87600
C328        C  0.00159268  0.41950314  0.75138623     0.87800
O329        O  0.10715244  0.96354631  0.98303082    -0.81000
O330        O  0.90960475  0.97811587  0.97491330    -0.65700
O331        O  0.02662217  0.99552840  0.96705999    -1.12300
C332        C  0.99268737  0.05343371  0.61878538     1.05900
O333        O  0.88820996  0.04150692  0.51921839    -0.78900
O334        O  0.95298833  0.09091929  0.50443646    -0.66500
Ni335      Ni  0.06327851  0.94487132  0.94429853     1.34900
C336        C  0.98985976  0.10091308  0.49708482     0.84600
O337        O  0.96690379  0.96113561  0.90126140    -0.79500
O338        O  0.02327345  0.92317524  0.90236780    -0.89700
C339        C  0.88113695  0.00612615  0.99347445     0.84200
O340        O  0.04260187  0.91415185  0.99784383    -0.67900
O341        O  0.97215646  0.08272553  0.59969814    -0.87200
C342        C  0.00562700  0.90490485  0.00629719     0.85000
C343        C  0.00286093  0.95270365  0.88347344     1.06600
H344        H  0.96174805  0.98575060  0.55368500     0.38400
O345        O  0.96911245  0.00995230  0.53550686    -1.09900
O346        O  0.02052446  0.07853283  0.51166972    -0.66500
Ni347      Ni  0.02832923  0.01981510  0.53356904     1.26300
O348        O  0.97509876  0.92700768  0.99106049    -0.66800
O349        O  0.02871023  0.04496757  0.60116195    -0.79000
C350        C  0.11468409  0.99905948  0.50815169     0.84400
O351        O  0.08648203  0.02702705  0.52782144    -0.66200
Ni352      Ni  0.93216606  0.06050211  0.55798527     1.27400
Ni353      Ni  0.96746837  0.98571658  0.96905591     1.26100
H354        H  0.03394232  0.01971941  0.94883050     0.38900
O355        O  0.09901528  0.98018691  0.67831225    -0.81000
O356        O  0.90431029  0.99414344  0.74509136    -0.65700
O357        O  0.01776386  0.01611518  0.71276677    -1.12300
C358        C  0.02362790  0.98982538  0.86649569     1.05900
O359        O  0.89697197  0.02659982  0.82323438    -0.78900
O360        O  0.96212627  0.07939217  0.81302921    -0.66500
Ni361      Ni  0.04375089  0.97952116  0.65651765     1.34900
C362        C  0.99743150  0.09214560  0.80072811     0.84600
O363        O  0.94218020  0.02299445  0.66681946    -0.79500
O364        O  0.99122846  0.97916161  0.63242774    -0.89700
C365        C  0.88196700  0.00841241  0.78422296     0.84200
O366        O  0.03441423  0.92834119  0.69036093    -0.67900
O367        O  0.00458819  0.02718524  0.86988220    -0.87200
C368        C  0.99921727  0.91488671  0.70129441     0.85000
C369        C  0.97200026  0.01637979  0.63564797     1.06600
H370        H  0.97470215  0.96019239  0.79346224     0.38400
O371        O  0.97804014  0.99069939  0.78910130    -1.09900
O372        O  0.02960524  0.06537848  0.79615162    -0.66500
Ni373      Ni  0.03593072  0.00175580  0.77381034     1.26300
O374        O  0.96663310  0.94102153  0.70527684    -0.66800
O375        O  0.05331426  0.98314374  0.83509103    -0.79000
C376        C  0.11402865  0.99676563  0.71808652     0.84400
O377        O  0.09165194  0.01151232  0.75698000    -0.66200
Ni378      Ni  0.95219214  0.02737016  0.84543080     1.27400
Ni379      Ni  0.95981303  0.00467991  0.72802937     1.26100
H380        H  0.02097755  0.04670287  0.70847378     0.38900
O381        O  0.50026298  0.95612923  0.57482947    -0.74600
O382        O  0.49476136  0.95623507  0.92994136    -0.74600
O383        O  0.55629206  0.94989573  0.49417959    -0.74600
O384        O  0.43870964  0.96285650  0.51088462    -0.74700
O385        O  0.44067308  0.03561343  0.01734326    -0.74600
O386        O  0.55783318  0.02283950  0.00365991    -0.74600
O387        O  0.49731929  0.02893332  0.93737152    -0.74600
O388        O  0.50098206  0.02902211  0.58268658    -0.74600
Ni389      Ni  0.49740372  0.95372561  0.50212990     1.25400
Ni390      Ni  0.49932236  0.03162785  0.01037199     1.25400
C391        C  0.50123737  0.99251036  0.60283797     0.87600
C392        C  0.49531905  0.99256697  0.90954115     0.87600
C393        C  0.57632145  0.98448359  0.99740472     0.87600
C394        C  0.42021399  0.00133579  0.51714353     0.87800
O395        O  0.49758953  0.95579225  0.82494477    -0.74600
O396        O  0.50410846  0.95583350  0.67909995    -0.74600
O397        O  0.55946201  0.95698298  0.75289454    -0.74600
O398        O  0.44234667  0.95442875  0.75108292    -0.74700
O399        O  0.43672797  0.02753493  0.75893381    -0.74600
O400        O  0.55349294  0.03001985  0.76127419    -0.74600
O401        O  0.49863369  0.02892905  0.68740095    -0.74600
O402        O  0.49185604  0.02887540  0.83307421    -0.74600
Ni403      Ni  0.50109682  0.95318897  0.75172104     1.25400
Ni404      Ni  0.49493464  0.03135546  0.76048214     1.25000
C405        C  0.49458305  0.99239526  0.85320471     0.87600
C406        C  0.50166006  0.99240894  0.65908676     0.87600
C407        C  0.57582367  0.99394973  0.75868966     0.87600
C408        C  0.42024472  0.99064868  0.75325720     0.87800
C409        C  0.21961508  0.02356967  0.75985661    -0.27700
C410        C  0.24531600  0.99357391  0.72774075     0.01900
C411        C  0.22790267  0.96583533  0.69103466     0.29900
C412        C  0.18532419  0.96824583  0.68704383    -0.19500
C413        C  0.15931274  0.99762802  0.71997789    -0.28900
C414        C  0.17709182  0.02579980  0.75630373     0.44000
C415        C  0.29024842  0.99206545  0.73276897     0.05200
O416        O  0.25219496  0.93625310  0.65887229    -0.57500
H417        H  0.17258995  0.94626982  0.65884770     0.18100
O418        O  0.15328703  0.05546821  0.78894650    -0.64200
H419        H  0.23260776  0.04508756  0.78830270     0.16500
C420        C  0.31224917  0.02921236  0.72583267     0.28800
C421        C  0.35428393  0.02820081  0.73300789    -0.25100
C422        C  0.37534139  0.99036175  0.74720166    -0.24300
C423        C  0.35328074  0.95279054  0.75330259     0.40300
C424        C  0.31106053  0.95396235  0.74628547    -0.26800
O425        O  0.29309988  0.06622183  0.71038461    -0.58700
H426        H  0.37052447  0.05714714  0.72679393     0.15900
O427        O  0.37225816  0.91527681  0.76772576    -0.60100
H428        H  0.29437901  0.92522010  0.75210669     0.14300
H429        H  0.14947746  0.08203006  0.77080906     0.46200
H430        H  0.28800955  0.08697974  0.74114245     0.41600
H431        H  0.37759529  0.89527538  0.73638252     0.45000
H432        H  0.26538347  0.95401909  0.63423609     0.36500
C433        C  0.76761402  0.01125750  0.82418665    -0.27700
C434        C  0.75129317  0.99582350  0.77909776     0.01900
C435        C  0.77790425  0.98376041  0.73629581     0.29900
C436        C  0.82011294  0.98795228  0.73862778    -0.19500
C437        C  0.83684098  0.00377612  0.78359803    -0.28900
C438        C  0.80995048  0.01476271  0.82685265     0.44000
C439        C  0.70631606  0.99476803  0.77598318     0.05200
O440        O  0.76263061  0.97001032  0.69128503    -0.57500
H441        H  0.83968498  0.97921923  0.70470133     0.18100
O442        O  0.82449413  0.02910622  0.87197711    -0.64200
H443        H  0.74742242  0.02070564  0.85745922     0.16500
C444        C  0.68770367  0.95494310  0.76641836     0.28800
C445        C  0.64545992  0.95515675  0.76026306    -0.25100
C446        C  0.62089919  0.99486132  0.76383904    -0.24300
C447        C  0.63980972  0.03474130  0.77431105     0.40300
C448        C  0.68200963  0.03433577  0.78054780    -0.26800
O449        O  0.71058006  0.91563307  0.76306675    -0.58700
H450        H  0.63194321  0.92400946  0.75288055     0.15900
O451        O  0.61743362  0.07440513  0.77929055    -0.60100
H452        H  0.69600454  0.06521088  0.78807996     0.14300
H453        H  0.83614117  0.00213594  0.88502068     0.46200
H454        H  0.70851417  0.90600749  0.79738848     0.41600
H455        H  0.61958190  0.08510911  0.74549615     0.45000
H456        H  0.76775223  0.93760149  0.68745120     0.36500
C457        C  0.22974856  0.99144111  0.48156448    -0.27700
C458        C  0.24325300  0.01238145  0.52557720     0.01900
C459        C  0.21420513  0.03270183  0.06289061     0.29900
C460        C  0.17204292  0.02964214  0.05671811    -0.19500
C461        C  0.15861404  0.00662937  0.51342427    -0.28900
C462        C  0.18808393  0.98850193  0.47515729     0.44000
C463        C  0.28793467  0.01123114  0.53130946     0.05200
O464        O  0.22659064  0.05539994  0.10534374    -0.57500
H465        H  0.14997897  0.04415073  0.08627276     0.18100
O466        O  0.17644754  0.96860179  0.43061252    -0.64200
H467        H  0.25180635  0.97682692  0.45200749     0.16500
C468        C  0.31020410  0.97077171  0.53338243     0.28800
C469        C  0.35305165  0.96843446  0.53042303    -0.25100
C470        C  0.37466462  0.00595417  0.52407849    -0.24300
C471        C  0.35211297  0.04685533  0.02314890     0.40300
C472        C  0.30909577  0.04921942  0.02717104    -0.26800
O473        O  0.29019265  0.93311511  0.53751694    -0.58700
H474        H  0.36933091  0.93675814  0.53181816     0.15900
O475        O  0.37156489  0.08450757  0.01687303    -0.60100
H476        H  0.29223091  0.08038788  0.02457647     0.14300
H477        H  0.18141271  0.93660199  0.43283885     0.46200
H478        H  0.29107782  0.91823700  0.50291205     0.41600
H479        H  0.37508357  0.08555316  0.97998490     0.45000
H480        H  0.23728623  0.03272251  0.12610800     0.36500
C481        C  0.68444453  0.00212486  0.53170439    -0.27700
C482        C  0.70762173  0.98183916  0.98905862     0.01900
C483        C  0.68743143  0.95888579  0.95069742     0.29900
C484        C  0.64448715  0.95806921  0.95450435    -0.19500
C485        C  0.62142216  0.98076426  0.99580544    -0.28900
C486        C  0.64176459  0.00202687  0.53505003     0.44000
C487        C  0.75239113  0.98737610  0.98454900     0.05200
O488        O  0.70921457  0.93855546  0.90872318    -0.57500
H489        H  0.62912010  0.94142739  0.92419263     0.18100
O490        O  0.62006581  0.02333870  0.57659776    -0.64200
H491        H  0.69950787  0.01890657  0.56219205     0.16500
C492        C  0.76684287  0.02972968  0.99054021     0.28800
C493        C  0.80882314  0.03496899  0.99124735    -0.25100
C494        C  0.83747153  0.99847330  0.98620374    -0.24300
C495        C  0.82318464  0.95600967  0.97812179     0.40300
C496        C  0.78087326  0.95074022  0.97717316    -0.26800
O497        O  0.74002296  0.06634328  0.99508200    -0.58700
H498        H  0.81892247  0.06801036  0.99642462     0.15900
O499        O  0.85000381  0.91945069  0.47289876    -0.60100
H500        H  0.77022781  0.91791987  0.97261348     0.14300
H501        H  0.61465558  0.00015254  0.59910574     0.46200
H502        H  0.74001308  0.07865241  0.03068961     0.41600
H503        H  0.85336892  0.91160328  0.50757319     0.45000
H504        H  0.70590521  0.95902204  0.88249656     0.36500
C505        C  0.02996442  0.69930954  0.71181397    -0.27700
C506        C  0.99536561  0.72754985  0.72850268     0.01900
C507        C  0.96146672  0.70916585  0.75171533     0.29900
C508        C  0.96275347  0.66392189  0.75809673    -0.19500
C509        C  0.99783511  0.63590381  0.74245472    -0.28900
C510        C  0.03151591  0.65434084  0.71875140     0.44000
C511        C  0.99559056  0.77592948  0.72226873     0.05200
O512        O  0.92703975  0.73517111  0.76907184    -0.57500
H513        H  0.93628578  0.65084470  0.77602057     0.18100
O514        O  0.06611105  0.62864762  0.70130538    -0.64200
H515        H  0.05603224  0.71209314  0.69269915     0.16500
C516        C  0.02896259  0.80022831  0.73679972     0.28800
C517        C  0.02937686  0.84510549  0.72984473    -0.25100
C518        C  0.99671623  0.86732071  0.70885597    -0.24300
C519        C  0.96316896  0.84328117  0.69449336     0.40300
C520        C  0.96283551  0.79813930  0.70108575    -0.26800
O521        O  0.06061058  0.78083404  0.76001075    -0.58700
H522        H  0.05534212  0.86281902  0.74167884     0.15900
O523        O  0.93094345  0.86323081  0.67291504    -0.60100
H524        H  0.93714220  0.78025560  0.68875035     0.14300
H525        H  0.06057062  0.61672448  0.66682013     0.46200
H526        H  0.08457473  0.77862117  0.73527127     0.41600
H527        H  0.93956330  0.86189471  0.63665813     0.45000
H528        H  0.93313202  0.74820715  0.80290464     0.36500
C529        C  0.96845129  0.30173168  0.75510800    -0.27700
C530        C  0.00449764  0.27864011  0.76724288     0.01900
C531        C  0.04033210  0.30192803  0.77095404     0.29900
C532        C  0.03914955  0.34719875  0.76437803    -0.19500
C533        C  0.00256191  0.37063451  0.75449221    -0.28900
C534        C  0.96716858  0.34689256  0.74909734     0.44000
C535        C  0.00371077  0.23083541  0.77674112     0.05200
O536        O  0.07665849  0.28078091  0.78114313    -0.57500
H537        H  0.06699344  0.36419564  0.76825459     0.18100
O538        O  0.93082116  0.36740571  0.73821725    -0.64200
H539        H  0.94081407  0.28462698  0.75005755     0.16500
C540        C  0.97166023  0.21610208  0.80713825     0.28800
C541        C  0.97028966  0.17132440  0.81439925    -0.25100
C542        C  0.00088725  0.13978868  0.79277731    -0.24300
C543        C  0.03331107  0.15446242  0.76282281     0.40300
C544        C  0.03438852  0.19931908  0.75487605    -0.26800
O545        O  0.94223541  0.24558521  0.83169303    -0.58700
H546        H  0.94498749  0.16139568  0.83753239     0.15900
O547        O  0.06377654  0.12522220  0.74023797    -0.60100
H548        H  0.05899321  0.20924623  0.73057235     0.14300
H549        H  0.93088310  0.36399854  0.70102742     0.46200
H550        H  0.91634056  0.23925561  0.81584587     0.41600
H551        H  0.05582725  0.11840487  0.70534123     0.45000
H552        H  0.08519554  0.29644847  0.81251758     0.36500
C553        C  0.96520181  0.70490024  0.56875683    -0.27700
C554        C  0.99727083  0.72758206  0.04893509     0.01900
C555        C  0.03120942  0.70355622  0.02240562     0.29900
C556        C  0.03206822  0.65777195  0.01463762    -0.19500
C557        C  0.99902603  0.63511665  0.03207467    -0.28900
C558        C  0.96589778  0.65902787  0.56056555     0.44000
C559        C  0.99369508  0.77616802  0.05099017     0.05200
O560        O  0.06291741  0.72463560  0.00183890    -0.57500
H561        H  0.05796155  0.64011796  0.99301772     0.18100
O562        O  0.93383272  0.63796604  0.58024462    -0.64200
H563        H  0.93914544  0.72287674  0.58970829     0.16500
C564        C  0.96119221  0.79774375  0.02879183     0.28800
C565        C  0.96339886  0.84166338  0.01927891    -0.25100
C566        C  0.99832823  0.86423919  0.03032107    -0.24300
C567        C  0.02871999  0.84404205  0.55758374     0.40300
C568        C  0.02608011  0.80040631  0.56793603    -0.26800
O569        O  0.92888390  0.77518816  0.01220512    -0.58700
H570        H  0.93940108  0.85662031  0.99903712     0.15900
O571        O  0.06266931  0.86533539  0.57085530    -0.60100
H572        H  0.05083087  0.78446297  0.58609336     0.14300
H573        H  0.94181224  0.63129622  0.61400457     0.46200
H574        H  0.93713518  0.76395896  0.97688276     0.41600
H575        H  0.05352251  0.88481553  0.60160839     0.45000
H576        H  0.05385420  0.73246395  0.96894685     0.36500
C577        C  0.96835456  0.20903878  0.94353002    -0.27700
C578        C  0.00224896  0.23166284  0.45849783     0.01900
C579        C  0.03495368  0.20868751  0.47868555     0.29900
C580        C  0.03215924  0.16450326  0.48674589    -0.19500
C581        C  0.99675794  0.14279899  0.47558614    -0.28900
C582        C  0.96550368  0.16492824  0.95151066     0.44000
C583        C  0.00035049  0.28014148  0.45999092     0.05200
O584        O  0.06750525  0.23039058  0.49607309    -0.57500
H585        H  0.05639169  0.14841932  0.50561341     0.18100
O586        O  0.93058659  0.14501567  0.93902940    -0.64200
H587        H  0.94295830  0.22636486  0.92804968     0.16500
C588        C  0.03211924  0.30234602  0.93809196     0.28800
C589        C  0.03152333  0.34822895  0.94589686    -0.25100
C590        C  0.99901375  0.37258355  0.47453986    -0.24300
C591        C  0.96635538  0.35025655  0.49444445     0.40300
C592        C  0.96720539  0.30451194  0.48698867    -0.26800
O593        O  0.06427117  0.27960409  0.90986893    -0.58700
H594        H  0.05653638  0.36482845  0.92952520     0.15900
O595        O  0.93409983  0.37262981  0.52282453    -0.60100
H596        H  0.94255301  0.28786453  0.50412302     0.14300
H597        H  0.93950496  0.12180268  0.91155910     0.46200
H598        H  0.05194806  0.26404477  0.88087625     0.41600
H599        H  0.94199374  0.37322296  0.55805785     0.45000
H600        H  0.09132369  0.21931519  0.47277619     0.36500
loop_ 
_geom_bond_atom_site_label_1 
_geom_bond_atom_site_label_2 
_geom_bond_distance 
_geom_bond_site_symmetry_2 
_ccdc_geom_bond_type 
O1           Ni9   1.951       .  S
O1           C11   1.287   1_455  A
O2         Ni309   1.953   1_554  S
O2           C12   1.288       .  A
O3           Ni9   1.920       .  S
O3          C313   1.282   1_455  A
O4           Ni9   1.920       .  S
O4           C14   1.282   1_455  A
O5          Ni10   1.912       .  S
O5          C314   1.280       .  A
O6          Ni10   1.909   1_556  S
O6           C13   1.280       .  A
O7          Ni10   1.951       .  S
O7           C12   1.288   1_655  A
O8         Ni310   1.956       .  S
O8           C11   1.289       .  A
Ni9         O302   1.953       .  S
Ni9        Ni310   2.382   1_455  S
Ni10        O308   1.957   1_554  S
Ni10       Ni309   2.382   1_654  S
C11          C25   1.513       .  S
C12          C26   1.510       .  S
C13         O303   1.282   1_655  A
C13         C290   1.478       .  S
C14         O305   1.280       .  A
C14         C257   1.480       .  S
O15         Ni23   1.954       .  S
O15          C25   1.288   1_455  A
O16         Ni23   1.953       .  S
O16          C26   1.288       .  A
O17         Ni23   1.933       .  S
O17          C27   1.284   1_455  A
O18         Ni23   1.934       .  S
O18          C28   1.284       .  A
O19         Ni24   1.936       .  S
O19          C28   1.285   1_655  A
O20         Ni24   1.938       .  S
O20          C27   1.285       .  A
O21         Ni24   1.950       .  S
O21          C26   1.287   1_655  A
O22         Ni24   1.952       .  S
O22          C25   1.287       .  A
Ni23        Ni24   2.377   1_455  S
C27         C209   1.505       .  S
C28         C233   1.506       .  S
O29         Ni35   1.906       .  S
O29         C350   1.269       .  A
O30         Ni53   1.923       .  S
O30          C39   1.273   1_565  A
O31         Ni35   1.931       .  S
O31         Ni53   1.977   1_455  S
O31        Ni347   1.870   1_565  S
O31          H54   0.960   1_565  S
C32          O49   1.247   1_655  A
C32          O41   1.254       .  A
C32          C69   1.452       .  S
O33         Ni52   1.912       .  S
O33         C339   1.271   1_554  A
O34         Ni52   1.900       .  S
O34          C36   1.273   1_554  A
Ni35         O38   1.887       .  S
Ni35         O40   1.903       .  S
C36          O46   1.282   1_656  A
C36         C281   1.480       .  S
O37         Ni53   1.901       .  S
O37          C43   1.247   1_655  A
O38          C43   1.254       .  A
C39         O333   1.271       .  A
C39         C194   1.484   1_545  S
O40          C42   1.273       .  A
O41         Ni52   1.888       .  S
C42          O48   1.281   1_455  A
C42         C266   1.482   1_455  S
C43          C58   1.456       .  S
H44          O45   0.960   1_565  S
O45         Ni47   1.980   1_655  S
O45         Ni52   1.932       .  S
O45        Ni353   1.868   1_544  S
O46         Ni47   1.951       .  S
Ni47         O51   1.930       .  S
Ni47         O49   1.901       .  S
Ni47        O331   1.870   1_544  S
O48         Ni53   1.952       .  S
C50          O51   1.275   1_565  A
C50         O329   1.269   1_554  A
C50         C161   1.484   1_565  S
Ni53        O345   1.868   1_565  S
O55         Ni61   1.935       .  S
O55          C76   1.275       .  A
O56         Ni79   1.903   1_565  S
O56          C65   1.269   1_565  A
O57         Ni61   1.915   1_545  S
O57         Ni79   1.977   1_455  S
O57         Ni73   1.855       .  S
O57          H80   0.967       .  S
C58          O75   1.242       .  A
C58          O67   1.262   1_565  A
O59         Ni78   1.937       .  S
O59          C65   1.276       .  A
O60         Ni78   1.922       .  S
O60          C62   1.278       .  A
Ni61         O64   1.873   1_455  S
Ni61         O66   1.916       .  S
C62          O72   1.287   1_655  A
C62         C242   1.506   1_655  S
O63         Ni79   1.893       .  S
O63          C69   1.241       .  A
O64          C69   1.261   1_565  A
C65         C137   1.494       .  S
O66          C68   1.275   1_455  A
O67         Ni78   1.872   1_455  S
C68          O74   1.287       .  A
C68         C218   1.497       .  S
H70          O71   0.965       .  S
O71         Ni79   1.853   1_565  S
O71         Ni73   1.973   1_665  S
O71         Ni78   1.916   1_565  S
O72         Ni73   1.979       .  S
Ni73         O77   1.902       .  S
Ni73         O75   1.895   1_545  S
O74         Ni79   1.983   1_565  S
C76          O77   1.268   1_565  A
C76         C113   1.489       .  S
O81         Ni89   1.950       .  S
O81          C91   1.287       .  A
O82        Ni389   1.949       .  S
O82          C92   1.287       .  A
O83         Ni89   1.923   1_556  S
O83         C393   1.281       .  A
O84         Ni89   1.923       .  S
O84          C94   1.284   1_565  A
O85         Ni90   1.914       .  S
O85         C394   1.280       .  A
O86         Ni90   1.914       .  S
O86          C93   1.280   1_545  A
O87         Ni90   1.955       .  S
O87          C92   1.288   1_545  A
O88        Ni390   1.950       .  S
O88          C91   1.287   1_545  A
Ni89        O382   1.949   1_554  S
Ni89       Ni390   2.382   1_565  S
Ni90        O388   1.950       .  S
Ni90       Ni389   2.382   1_545  S
C91         C106   1.508       .  S
C92         C105   1.510       .  S
C93         O383   1.281       .  A
C93         C185   1.472       .  S
C94         O385   1.280       .  A
C94         C170   1.489       .  S
O95        Ni103   1.952       .  S
O95         C105   1.288       .  A
O96        Ni103   1.952       .  S
O96         C106   1.288       .  A
O97        Ni103   1.924       .  S
O97         C107   1.283       .  A
O98        Ni103   1.923       .  S
O98         C108   1.282       .  A
O99        Ni104   1.920       .  S
O99         C108   1.283   1_545  A
O100       Ni104   1.917       .  S
O100        C107   1.281   1_545  A
O101       Ni104   1.949       .  S
O101        C106   1.286   1_545  A
O102       Ni104   1.950       .  S
O102        C105   1.287   1_545  A
Ni103      Ni104   2.380   1_565  S
C107        C146   1.492       .  S
C108        C122   1.489       .  S
C109        C110   1.401   1_545  A
C109        C114   1.399       .  A
C109        H119   1.084       .  S
C110        C115   1.484       .  S
C110        C111   1.408       .  A
C111        C112   1.403       .  A
C111        O116   1.371       .  S
C112        C113   1.408       .  A
C112        H117   1.083       .  S
C113        C114   1.415   1_565  A
C114        O118   1.372       .  S
C115        C120   1.406   1_565  A
C115        C124   1.403       .  A
O116        H132   0.991       .  S
O118        H129   0.992       .  S
C120        C121   1.400       .  A
C120        O125   1.372       .  S
C121        C122   1.407   1_545  A
C121        H126   1.083       .  S
C122        C123   1.414       .  A
C123        C124   1.405       .  A
C123        O127   1.372       .  S
C124        H128   1.084       .  S
O125        H130   0.992       .  S
O127        H131   0.992       .  S
C133        C134   1.403   1_545  A
C133        C138   1.403       .  A
C133        H143   1.084       .  S
C134        C139   1.482       .  S
C134        C135   1.405       .  A
C135        C136   1.401       .  A
C135        O140   1.372       .  S
C136        C137   1.409   1_565  A
C136        H141   1.083       .  S
C137        C138   1.415       .  A
C138        O142   1.369       .  S
C139        C144   1.406       .  A
C139        C148   1.400   1_565  A
O140        H156   0.992       .  S
O142        H153   0.991       .  S
C144        C145   1.402       .  A
C144        O149   1.371       .  S
C145        C146   1.409       .  A
C145        H150   1.083       .  S
C146        C147   1.416   1_565  A
C147        C148   1.401       .  A
C147        O151   1.371       .  S
C148        H152   1.084       .  S
O149        H154   0.992       .  S
O151        H155   0.992       .  S
C157        C158   1.397   1_566  A
C157        C162   1.393       .  A
C157        H167   1.084       .  S
C158        C163   1.479       .  S
C158        C459   1.410       .  A
C159        C160   1.408       .  A
C159        C458   1.410       .  A
C159        O164   1.372       .  S
C160        C461   1.407       .  A
C160        H165   1.083       .  S
C161        C162   1.415   1_544  A
C161        C460   1.407       .  A
C162        O166   1.373       .  S
C163        C168   1.407   1_545  A
C163        C472   1.400       .  A
O164        H180   0.990       .  S
O166        H177   0.992       .  S
C168        C169   1.398       .  A
C168        O173   1.372       .  S
C169        C170   1.406   1_565  A
C169        H174   1.083       .  S
C170        C471   1.417       .  A
C171        C172   1.403       .  A
C171        C470   1.417       .  A
C171        O175   1.371       .  S
C172        C463   1.400       .  A
C172        H176   1.084       .  S
O173        H178   0.992       .  S
O175        H179   0.992       .  S
C181        C186   1.396       .  A
C181        C482   1.405   1_544  A
C181        H191   1.084       .  S
C182        C187   1.486       .  S
C182        C183   1.410       .  A
C182        C481   1.405   1_565  A
C183        C184   1.406       .  A
C183        O188   1.371       .  S
C184        C185   1.404       .  A
C184        H189   1.084       .  S
C185        C486   1.406   1_565  A
C186        C485   1.406   1_544  A
C186        O190   1.372       .  S
C187        C192   1.407   1_565  A
C187        C196   1.406       .  A
O188        H204   0.991       .  S
O190        H201   0.992       .  S
C192        C193   1.395       .  A
C192        O197   1.373       .  S
C193        C194   1.406   1_545  A
C193        H198   1.084       .  S
C194        C195   1.412       .  A
C195        C196   1.406       .  A
C195        O499   1.371       .  S
C196        H200   1.083       .  S
O197        H202   0.992       .  S
O199        C495   1.371       .  S
O199        H203   0.992   1_556  S
C205        C206   1.407   1_455  A
C205        C210   1.406       .  A
C205        H215   1.083       .  S
C206        C211   1.508       .  S
C206        C207   1.414       .  A
C207        C208   1.411       .  A
C207        O212   1.371       .  S
C208        C209   1.410       .  A
C208        H213   1.083       .  S
C209        C210   1.415   1_655  A
C210        O214   1.371       .  S
C211        C216   1.413   1_655  A
C211        C220   1.411       .  A
O212        H228   0.992       .  S
O214        H225   0.992       .  S
C216        C217   1.406       .  A
C216        O221   1.372       .  S
C217        C218   1.406   1_455  A
C217        H222   1.084       .  S
C218        C219   1.412       .  A
C219        C220   1.412       .  A
C219        O223   1.371       .  S
C220        H224   1.083       .  S
O221        H226   0.992       .  S
O223        H227   0.992       .  S
C229        C230   1.409   1_655  A
C229        C234   1.407       .  A
C229        H239   1.083       .  S
C230        C235   1.512       .  S
C230        C231   1.414       .  A
C231        C232   1.413       .  A
C231        O236   1.373       .  S
C232        C233   1.410       .  A
C232        H237   1.083       .  S
C233        C234   1.413   1_455  A
C234        O238   1.371       .  S
C235        C240   1.413   1_455  A
C235        C244   1.411       .  A
O236        H252   0.991       .  S
O238        H249   0.992       .  S
C240        C241   1.407       .  A
C240        O245   1.373       .  S
C241        C242   1.407   1_655  A
C241        H246   1.082       .  S
C242        C243   1.415       .  A
C243        C244   1.413       .  A
C243        O247   1.372       .  S
C244        H248   1.083       .  S
O245        H250   0.992       .  S
O247        H251   0.992       .  S
C253        C258   1.401       .  A
C253        C554   1.402       .  A
C253        H263   1.084       .  S
C254        C259   1.482       .  S
C254        C255   1.411   1_655  A
C254        C553   1.402       .  A
C255        C256   1.397       .  A
C255        O260   1.372       .  S
C256        C257   1.402   1_455  A
C256        H261   1.084       .  S
C257        C558   1.413       .  A
C258        C557   1.413       .  A
C258        O262   1.371       .  S
C259        C264   1.409       .  A
C259        C568   1.402   1_655  A
O260        H276   0.992       .  S
O262        H273   0.992       .  S
C264        C265   1.399       .  A
C264        O269   1.372       .  S
C265        C266   1.405       .  A
C265        H270   1.084       .  S
C266        C567   1.413   1_655  A
C267        C268   1.398       .  A
C267        C566   1.413   1_455  A
C267        O271   1.371       .  S
C268        C559   1.402   1_455  A
C268        H272   1.084       .  S
O269        H274   0.992       .  S
O271        H275   0.990       .  S
C277        C282   1.396       .  A
C277        C578   1.402   1_655  A
C277        H287   1.083       .  S
C278        C283   1.480       .  S
C278        C279   1.408       .  A
C278        C577   1.402   1_455  A
C279        C280   1.399       .  A
C279        O284   1.372       .  S
C280        C281   1.405   1_455  A
C280        H285   1.083   1_556  S
C281        C582   1.414       .  A
C282        C581   1.414       .  A
C282        O286   1.373       .  S
C283        C292   1.402   1_455  A
C283        C588   1.409       .  A
O284        H300   0.992       .  S
O286        H297   0.992       .  S
C288        C289   1.401       .  A
C288        C583   1.409       .  A
C288        O293   1.372       .  S
C289        C590   1.406   1_455  A
C289        H294   1.083       .  S
C290        C291   1.410       .  A
C290        C589   1.406   1_655  A
C291        C292   1.396       .  A
C291        O295   1.372   1_556  S
C292        H296   1.084   1_556  S
O293        H298   0.992       .  S
O295        H299   0.992       .  S
O301       Ni309   1.951       .  S
O301        C311   1.287   1_455  A
O302        C312   1.288       .  A
O303       Ni309   1.920       .  S
O304       Ni309   1.920   1_554  S
O304        C314   1.282   1_455  A
O305       Ni310   1.912       .  S
O306       Ni310   1.909       .  S
O306        C313   1.280       .  A
O307       Ni310   1.951       .  S
O307        C312   1.287   1_655  A
O308        C311   1.289       .  A
C311        C325   1.513       .  S
C312        C326   1.510       .  S
C313        C590   1.478       .  S
C314        C557   1.480       .  S
O315       Ni323   1.954       .  S
O315        C325   1.288   1_455  A
O316       Ni323   1.953       .  S
O316        C326   1.288       .  A
O317       Ni323   1.933       .  S
O317        C327   1.284   1_455  A
O318       Ni323   1.934       .  S
O318        C328   1.284       .  A
O319       Ni324   1.936       .  S
O319        C328   1.285   1_655  A
O320       Ni324   1.938       .  S
O320        C327   1.285       .  A
O321       Ni324   1.950       .  S
O321        C326   1.287   1_655  A
O322       Ni324   1.952       .  S
O322        C325   1.287       .  A
Ni323      Ni324   2.377   1_455  S
C327        C509   1.505       .  S
C328        C533   1.506       .  S
O329       Ni335   1.906       .  S
O330       Ni353   1.923       .  S
O330        C339   1.273   1_565  A
O331       Ni335   1.931       .  S
O331       Ni353   1.977   1_455  S
O331        H354   0.960   1_565  S
C332        O349   1.247   1_655  A
C332        O341   1.254       .  A
C332        C369   1.452       .  S
O333       Ni352   1.912       .  S
O334       Ni352   1.900       .  S
O334        C336   1.273       .  A
Ni335       O338   1.887       .  S
Ni335       O340   1.903       .  S
C336        O346   1.282   1_655  A
C336        C581   1.480       .  S
O337       Ni353   1.901       .  S
O337        C343   1.247   1_655  A
O338        C343   1.254       .  A
C339        C494   1.484   1_545  S
O340        C342   1.273   1_556  A
O341       Ni352   1.888       .  S
C342        O348   1.281   1_454  A
C342        C566   1.482   1_455  S
C343        C358   1.456       .  S
H344        O345   0.960   1_565  S
O345       Ni347   1.980   1_655  S
O345       Ni352   1.932       .  S
O346       Ni347   1.951       .  S
Ni347       O351   1.930       .  S
Ni347       O349   1.901       .  S
O348       Ni353   1.952       .  S
C350        O351   1.275   1_565  A
C350        C461   1.484   1_565  S
O355       Ni361   1.935       .  S
O355        C376   1.275       .  A
O356       Ni379   1.903   1_565  S
O356        C365   1.269   1_565  A
O357       Ni361   1.915   1_545  S
O357       Ni379   1.978   1_455  S
O357       Ni373   1.855       .  S
O357        H380   0.967       .  S
C358        O375   1.242       .  A
C358        O367   1.262   1_565  A
O359       Ni378   1.937       .  S
O359        C365   1.276       .  A
O360       Ni378   1.922       .  S
O360        C362   1.278       .  A
Ni361       O364   1.872   1_455  S
Ni361       O366   1.916       .  S
C362        O372   1.287   1_655  A
C362        C542   1.506   1_655  S
O363       Ni379   1.893       .  S
O363        C369   1.241       .  A
O364        C369   1.261   1_565  A
C365        C437   1.494       .  S
O366        C368   1.275   1_455  A
O367       Ni378   1.872   1_455  S
C368        O374   1.287       .  A
C368        C518   1.497       .  S
H370        O371   0.965       .  S
O371       Ni379   1.852   1_565  S
O371       Ni373   1.973   1_665  S
O371       Ni378   1.916   1_565  S
O372       Ni373   1.979       .  S
Ni373       O377   1.903       .  S
Ni373       O375   1.895   1_545  S
O374       Ni379   1.983   1_565  S
C376        O377   1.268   1_565  A
C376        C413   1.489       .  S
O381       Ni389   1.950       .  S
O381        C391   1.287       .  A
O382        C392   1.287       .  A
O383       Ni389   1.923       .  S
O384       Ni389   1.923       .  S
O384        C394   1.284   1_565  A
O385       Ni390   1.914       .  S
O386       Ni390   1.914       .  S
O386        C393   1.280   1_544  A
O387       Ni390   1.955   1_556  S
O387        C392   1.288   1_545  A
O388        C391   1.287   1_545  A
C391        C406   1.508       .  S
C392        C405   1.510       .  S
C393        C485   1.472       .  S
C394        C470   1.489       .  S
O395       Ni403   1.952       .  S
O395        C405   1.288       .  A
O396       Ni403   1.952       .  S
O396        C406   1.288       .  A
O397       Ni403   1.924       .  S
O397        C407   1.283       .  A
O398       Ni403   1.923       .  S
O398        C408   1.282       .  A
O399       Ni404   1.920       .  S
O399        C408   1.283   1_545  A
O400       Ni404   1.917       .  S
O400        C407   1.281   1_545  A
O401       Ni404   1.949       .  S
O401        C406   1.286   1_545  A
O402       Ni404   1.950       .  S
O402        C405   1.287   1_545  A
Ni403      Ni404   2.380   1_565  S
C407        C446   1.492       .  S
C408        C422   1.489       .  S
C409        C410   1.401   1_545  A
C409        C414   1.399       .  A
C409        H419   1.084       .  S
C410        C415   1.484       .  S
C410        C411   1.408       .  A
C411        C412   1.403       .  A
C411        O416   1.371       .  S
C412        C413   1.408       .  A
C412        H417   1.083       .  S
C413        C414   1.415   1_565  A
C414        O418   1.372       .  S
C415        C420   1.406   1_565  A
C415        C424   1.403       .  A
O416        H432   0.991       .  S
O418        H429   0.992       .  S
C420        C421   1.400       .  A
C420        O425   1.372       .  S
C421        C422   1.407   1_545  A
C421        H426   1.083       .  S
C422        C423   1.414       .  A
C423        C424   1.405       .  A
C423        O427   1.372       .  S
C424        H428   1.084       .  S
O425        H430   0.992       .  S
O427        H431   0.992       .  S
C433        C434   1.403   1_545  A
C433        C438   1.403       .  A
C433        H443   1.084       .  S
C434        C439   1.482       .  S
C434        C435   1.405       .  A
C435        C436   1.401       .  A
C435        O440   1.372       .  S
C436        C437   1.409   1_565  A
C436        H441   1.083       .  S
C437        C438   1.415       .  A
C438        O442   1.369       .  S
C439        C444   1.406       .  A
C439        C448   1.400   1_565  A
O440        H456   0.992       .  S
O442        H453   0.991       .  S
C444        C445   1.403       .  A
C444        O449   1.371       .  S
C445        C446   1.409       .  A
C445        H450   1.083       .  S
C446        C447   1.416   1_565  A
C447        C448   1.401       .  A
C447        O451   1.371       .  S
C448        H452   1.084       .  S
O449        H454   0.992       .  S
O451        H455   0.992       .  S
C457        C458   1.397   1_565  A
C457        C462   1.393       .  A
C457        H467   1.084       .  S
C458        C463   1.479       .  S
C459        C460   1.408       .  A
C459        O464   1.372       .  S
C460        H465   1.083       .  S
C461        C462   1.415   1_545  A
C462        O466   1.373       .  S
C463        C468   1.407   1_545  A
O464        H480   0.990       .  S
O466        H477   0.992       .  S
C468        C469   1.398       .  A
C468        O473   1.372       .  S
C469        C470   1.406   1_565  A
C469        H474   1.083       .  S
C471        C472   1.404       .  A
C471        O475   1.371       .  S
C472        H476   1.084       .  S
O473        H478   0.992       .  S
O475        H479   0.992   1_554  S
C481        C486   1.396       .  A
C481        H491   1.084       .  S
C482        C487   1.486       .  S
C482        C483   1.410       .  A
C483        C484   1.406       .  A
C483        O488   1.371       .  S
C484        C485   1.404       .  A
C484        H489   1.084       .  S
C486        O490   1.372       .  S
C487        C492   1.407   1_565  A
C487        C496   1.406       .  A
O488        H504   0.991       .  S
O490        H501   0.992       .  S
C492        C493   1.395       .  A
C492        O497   1.373       .  S
C493        C494   1.406   1_545  A
C493        H498   1.084       .  S
C494        C495   1.412       .  A
C495        C496   1.406       .  A
C496        H500   1.083       .  S
O497        H502   0.992   1_556  S
O499        H503   0.992       .  S
C505        C506   1.407   1_455  A
C505        C510   1.406       .  A
C505        H515   1.083       .  S
C506        C511   1.508       .  S
C506        C507   1.414       .  A
C507        C508   1.411       .  A
C507        O512   1.371       .  S
C508        C509   1.410       .  A
C508        H513   1.083       .  S
C509        C510   1.415   1_655  A
C510        O514   1.371       .  S
C511        C516   1.413   1_655  A
C511        C520   1.411       .  A
O512        H528   0.992       .  S
O514        H525   0.992       .  S
C516        C517   1.406       .  A
C516        O521   1.372       .  S
C517        C518   1.406   1_455  A
C517        H522   1.084       .  S
C518        C519   1.412       .  A
C519        C520   1.412       .  A
C519        O523   1.371       .  S
C520        H524   1.083       .  S
O521        H526   0.992       .  S
O523        H527   0.992       .  S
C529        C530   1.409   1_655  A
C529        C534   1.407       .  A
C529        H539   1.083       .  S
C530        C535   1.512       .  S
C530        C531   1.414       .  A
C531        C532   1.413       .  A
C531        O536   1.373       .  S
C532        C533   1.410       .  A
C532        H537   1.083       .  S
C533        C534   1.413   1_455  A
C534        O538   1.371       .  S
C535        C540   1.413   1_455  A
C535        C544   1.411       .  A
O536        H552   0.991       .  S
O538        H549   0.992       .  S
C540        C541   1.407       .  A
C540        O545   1.373       .  S
C541        C542   1.407   1_655  A
C541        H546   1.082       .  S
C542        C543   1.415       .  A
C543        C544   1.413       .  A
C543        O547   1.372       .  S
C544        H548   1.083       .  S
O545        H550   0.992       .  S
O547        H551   0.992       .  S
C553        C558   1.401       .  A
C553        H563   1.084       .  S
C554        C559   1.482       .  S
C554        C555   1.411   1_655  A
C555        C556   1.397       .  A
C555        O560   1.372       .  S
C556        C557   1.402   1_455  A
C556        H561   1.084   1_554  S
C558        O562   1.371       .  S
C559        C564   1.409       .  A
O560        H576   0.992   1_554  S
O562        H573   0.992       .  S
C564        C565   1.399       .  A
C564        O569   1.372       .  S
C565        C566   1.405       .  A
C565        H570   1.084   1_554  S
C567        C568   1.398       .  A
C567        O571   1.371       .  S
C568        H572   1.084       .  S
O569        H574   0.992   1_554  S
O571        H575   0.990       .  S
C577        C582   1.396       .  A
C577        H587   1.083       .  S
C578        C583   1.480       .  S
C578        C579   1.408       .  A
C579        C580   1.399       .  A
C579        O584   1.372       .  S
C580        C581   1.405   1_455  A
C580        H585   1.083       .  S
C582        O586   1.373       .  S
C583        C592   1.402   1_455  A
O584        H600   0.992       .  S
O586        H597   0.992       .  S
C588        C589   1.401       .  A
C588        O593   1.372       .  S
C589        H594   1.083       .  S
C590        C591   1.410       .  A
C591        C592   1.396       .  A
C591        O595   1.372       .  S
C592        H596   1.084       .  S
O593        H598   0.992       .  S
O595        H599   0.992       .  S
