geometry optimzed in LAMMPS
_audit_creation_date              2020-11-30 
_audit_creation_method            'lammps2cif' 
_symmetry_space_group_name_H-M    'P1' 
_symmetry_Int_Tables_number       1 
_symmetry_cell_setting            triclinic 
loop_ 
_symmetry_equiv_pos_as_xyz 
  x,y,z 
_cell_length_a                    26.7208857 
_cell_length_b                    25.954676296091183 
_cell_length_c                    25.81528166333859 
_cell_angle_alpha                 89.68005921037954 
_cell_angle_beta                  89.79957579237129 
_cell_angle_gamma                 89.10070690867543 
loop_ 
_atom_site_label 
_atom_site_type_symbol 
_atom_site_fract_x 
_atom_site_fract_y 
_atom_site_fract_z 
_atom_site_charge 
O1          O  0.97082615  0.47531926  0.88849408    -0.77700
C2          C  0.00896395  0.35964214  0.00528044     0.83300
O3          O  0.88356699  0.53810964  0.03268538    -0.78900
O4          O  0.03287678  0.48194024  0.11939888    -0.80300
O5          O  0.12132437  0.53365083  0.96527223    -0.80100
O6          O  0.02724025  0.53774217  0.88279842    -0.78800
Zn7        Zn  0.96082313  0.45933219  0.96303359     1.55700
O8          O  0.12169613  0.47635574  0.02941811    -0.80200
Cd9        Cd  0.04591333  0.55037823  0.95731258     1.59700
Cd10       Cd  0.95855616  0.55439189  0.04139388     1.59600
O11         O  0.03568873  0.62806712  0.97133212    -0.80200
O12         O  0.00242960  0.50610404  0.00100773    -1.90700
Cd13       Cd  0.04735781  0.46307126  0.04462298     1.59900
O14         O  0.97009403  0.63125725  0.02419861    -0.80100
O15         O  0.03739223  0.38465322  0.03519070    -0.78800
C16         C  0.86223905  0.50258312  0.00757961     0.83800
C17         C  0.99720539  0.50652258  0.86216231     0.83400
O18         O  0.97815196  0.38321501  0.97545490    -0.77700
C19         C  0.14481919  0.50412489  0.99663066     0.84200
O20         O  0.88767392  0.47058112  0.98047463    -0.77800
C21         C  0.00363430  0.65370864  0.99758216     0.84400
C22         C  0.00423845  0.51449430  0.14195395     0.84700
O23         O  0.97496271  0.54515771  0.11772136    -0.80200
O24         O  0.02235786  0.62012776  0.53242909    -0.77700
C25         C  0.98791041  0.49692395  0.64186264     0.83300
O26         O  0.10617880  0.46559333  0.47339504    -0.78900
O27         O  0.95364174  0.37712725  0.52919528    -0.80300
O28         O  0.86842847  0.53896867  0.47461939    -0.80100
O29         O  0.96045983  0.62617449  0.47566524    -0.78800
Zn30       Zn  0.03210328  0.54300513  0.54450440     1.55700
O31         O  0.86849362  0.47289022  0.52999796    -0.80200
Cd32       Cd  0.94468289  0.54953425  0.46155485     1.59700
Cd33       Cd  0.03083247  0.45523278  0.46085511     1.59600
O34         O  0.96040492  0.53552471  0.38525197    -0.80200
O35         O  0.98788456  0.50154204  0.50323196    -1.90700
Cd36       Cd  0.94287072  0.45531929  0.54353146     1.59900
O37         O  0.01754966  0.47156740  0.38557534    -0.80100
O38         O  0.95772158  0.46667607  0.61984590    -0.78800
C39         C  0.12918701  0.49474356  0.50446028     0.83800
C40         C  0.99261744  0.64735510  0.50461024     0.83400
O41         O  0.01629284  0.52718980  0.61693921    -0.77700
C42         C  0.84519955  0.50631227  0.50246874     0.84200
O43         O  0.10561586  0.52550676  0.53439452    -0.77800
C44         C  0.98961230  0.50394346  0.36197237     0.84400
C45         C  0.98526604  0.35368096  0.50042524     0.84700
O46         O  0.01640667  0.37845572  0.47284774    -0.80200
O47         O  0.53820626  0.61564773  0.02504474    -0.77700
C48         C  0.50317120  0.49697092  0.13967405     0.83300
O49         O  0.62329791  0.46094423  0.97068878    -0.78900
O50         O  0.47075836  0.37367327  0.02913946    -0.80300
O51         O  0.38561181  0.53045711  0.97260165    -0.80100
O52         O  0.47740246  0.61859408  0.96696511    -0.78800
Zn53       Zn  0.54721212  0.53952159  0.04106740     1.55700
O54         O  0.38497041  0.46770416  0.03141318    -0.80200
Cd55       Cd  0.46114394  0.54118933  0.95790272     1.59700
Cd56       Cd  0.54821546  0.44817384  0.95894058     1.59600
O57         O  0.47398008  0.52180993  0.88289523    -0.80200
O58         O  0.50478471  0.49566199  0.00056941    -1.90700
Cd59       Cd  0.45992814  0.45126887  0.04245852     1.61100
O60         O  0.53227063  0.45905583  0.88243709    -0.80100
O61         O  0.47551452  0.46428423  0.11778019    -0.78800
C62         C  0.64512553  0.49102956  0.00176758     0.83800
C63         C  0.50924641  0.64132697  0.99515989     0.83400
O64         O  0.53058434  0.52833178  0.11493201    -0.77700
C65         C  0.36195259  0.49978540  0.00228472     0.84200
O66         O  0.62005809  0.52160080  0.03071716    -0.77800
C67         C  0.50208540  0.48958958  0.85917327     0.84400
C68         C  0.50344669  0.34876907  0.00302349     0.84700
O69         O  0.53620441  0.37155397  0.97575855    -0.80200
O70         O  0.51619593  0.61692635  0.52876827    -0.77700
C71         C  0.48989339  0.49384632  0.63913869     0.83300
O72         O  0.60756443  0.46121073  0.47570383    -0.78900
O73         O  0.45442456  0.37443015  0.52486499    -0.80300
O74         O  0.36784588  0.52453168  0.46482956    -0.80100
O75         O  0.45156396  0.62057545  0.47502500    -0.78800
Zn76       Zn  0.52993343  0.54157854  0.54079054     1.55700
O77         O  0.36917452  0.46861596  0.53068280    -0.80200
Cd78       Cd  0.44301035  0.54335867  0.45711127     1.59700
Cd79       Cd  0.53243017  0.45194271  0.45893596     1.59600
O80         O  0.46340818  0.53490190  0.38143071    -0.80200
O81         O  0.48766347  0.49786609  0.49998146    -1.90700
Cd82       Cd  0.44411880  0.45179611  0.54139480     1.59900
O83         O  0.52205854  0.47232214  0.38380162    -0.80100
O84         O  0.46134286  0.46202550  0.61711635    -0.78800
C85         C  0.62885257  0.49580536  0.50211603     0.83800
C86         C  0.48405626  0.64275639  0.50283039     0.83400
O87         O  0.51641366  0.52617803  0.61461629    -0.77700
C88         C  0.34540400  0.49593268  0.49753033     0.84200
O89         O  0.60363569  0.52940612  0.52722922    -0.77800
C90         C  0.49468391  0.50474552  0.35934027     0.84400
C91         C  0.48420790  0.35039618  0.49459404     0.84700
O92         O  0.51577757  0.37458947  0.46688899    -0.80200
N93         N  0.01292445  0.95269531  0.94487926    -0.35900
N94         N  0.01026095  0.94944556  0.06078290    -0.56400
N95         N  0.01735563  0.05870895  0.06281431    -0.35900
N96         N  0.01355246  0.06194671  0.94663633    -0.56400
C97         C  0.99984444  0.90355566  0.95459122     0.27700
C98         C  0.00210980  0.96283898  0.89442816     0.27700
C99         C  0.00663455  0.04928497  0.11355622     0.27700
C100        C  0.00740389  0.10914175  0.05339010     0.27700
C101        C  0.01902921  0.89941321  0.04950838     0.36300
C102        C  0.02025065  0.95496581  0.11187746     0.36300
C103        C  0.02190313  0.05539351  0.89515471     0.36300
C104        C  0.02461054  0.11130201  0.95750809     0.36300
C105        C  0.98081948  0.88199875  0.90981613    -0.21100
C106        C  0.98219879  0.91942678  0.87189970    -0.21100
C107        C  0.99028253  0.09454722  0.13668969    -0.21100
C108        C  0.99073685  0.13225120  0.09882745    -0.21100
C109        C  0.03452407  0.87296146  0.09365104    -0.22200
C110        C  0.03551459  0.90824960  0.13310746    -0.22200
C111        C  0.03850660  0.10079839  0.87322604    -0.22200
C112        C  0.04004376  0.13627308  0.91262339    -0.22200
C113        C  0.00870296  0.87625063  0.00133195    -0.17500
C114        C  0.01203855  0.00946941  0.86772044    -0.17500
C115        C  0.01599916  0.13564948  0.00590553    -0.17500
C116        C  0.01316687  0.00129338  0.13976900    -0.17500
H117        H  0.96788262  0.84304058  0.90477689     0.15400
H118        H  0.97021878  0.91502507  0.83218383     0.15400
H119        H  0.97923023  0.09989543  0.17669994     0.15400
H120        H  0.98030557  0.17231991  0.10429276     0.15400
H121        H  0.04348792  0.83228377  0.09720770     0.13600
H122        H  0.04573598  0.90031854  0.17292586     0.13600
H123        H  0.04785487  0.10780977  0.83300203     0.13600
H124        H  0.05051043  0.17621005  0.90853072     0.13600
H125        H  0.03353655  0.97536665  0.96980239     0.26900
H126        H  0.03544148  0.03390205  0.03714756     0.26900
N127        N  0.01442812  0.94662588  0.56280622    -0.35900
N128        N  0.00895198  0.05641724  0.56028362    -0.56400
N129        N  0.01476730  0.05468004  0.44444696    -0.35900
N130        N  0.01324773  0.94492682  0.44678986    -0.56400
C131        C  0.00425297  0.95624235  0.61354954     0.27700
C132        C  0.00197549  0.89722790  0.55336700     0.27700
C133        C  0.00056561  0.10409237  0.45333652     0.27700
C134        C  0.00684567  0.04518783  0.39341602     0.27700
C135        C  0.01756116  0.05038914  0.61179310     0.36300
C136        C  0.01428572  0.10708613  0.54955354     0.36300
C137        C  0.01934743  0.89419477  0.45751122     0.36300
C138        C  0.02250940  0.95095975  0.39536878     0.36300
C139        C  0.98539917  0.91227439  0.63658269    -0.21100
C140        C  0.98394999  0.87510031  0.59872222    -0.21100
C141        C  0.98386604  0.12636144  0.40737343    -0.21100
C142        C  0.98795460  0.08929283  0.36963858    -0.21100
C143        C  0.02839550  0.09749398  0.63370555    -0.22200
C144        C  0.02597260  0.13337365  0.59445822    -0.22200
C145        C  0.03232387  0.86788405  0.41262169    -0.22200
C146        C  0.03447641  0.90381967  0.37338923    -0.22200
C147        C  0.01249555  0.00343433  0.63968767    -0.17500
C148        C  0.00948342  0.87039604  0.50603591    -0.17500
C149        C  0.01686965  0.99799475  0.36757215    -0.17500
C150        C  0.00536805  0.13087541  0.50079230    -0.17500
H151        H  0.97378480  0.90748372  0.67650614     0.15400
H152        H  0.97141650  0.83597864  0.60414482     0.15400
H153        H  0.97050692  0.16552933  0.40146023     0.15400
H154        H  0.97791198  0.09423118  0.32931328     0.15400
H155        H  0.03670162  0.10542302  0.67384275     0.13600
H156        H  0.03196533  0.17429176  0.59858319     0.13600
H157        H  0.03899486  0.82687546  0.40842023     0.13600
H158        H  0.04312967  0.89598656  0.33318503     0.13600
H159        H  0.03368722  0.97034792  0.53730979     0.26900
H160        H  0.03354817  0.03087395  0.47067058     0.26900
N161        N  0.50288692  0.94304938  0.93943848    -0.35900
N162        N  0.50346256  0.93902122  0.05580862    -0.56400
N163        N  0.49575299  0.04923478  0.05819957    -0.35900
N164        N  0.50140063  0.05296537  0.94194001    -0.56400
C165        C  0.51531107  0.89312176  0.94859709     0.27700
C166        C  0.51293899  0.95320317  0.88870502     0.27700
C167        C  0.50028989  0.04002626  0.10992178     0.27700
C168        C  0.50082770  0.10035732  0.05019523     0.27700
C169        C  0.49912310  0.88839796  0.04489600     0.36300
C170        C  0.49526192  0.94427479  0.10750170     0.36300
C171        C  0.49794459  0.04774190  0.88977623     0.36300
C172        C  0.49541035  0.10367683  0.95213124     0.36300
C173        C  0.53341517  0.87127137  0.90309205    -0.21100
C174        C  0.53153665  0.90896933  0.86535440    -0.21100
C175        C  0.50695218  0.08638561  0.13517360    -0.21100
C176        C  0.50747567  0.12428252  0.09767125    -0.21100
C177        C  0.48864254  0.86133493  0.09013249    -0.22200
C178        C  0.48667021  0.89655426  0.12966790    -0.22200
C179        C  0.49047534  0.09544381  0.86666535    -0.22200
C180        C  0.48904972  0.13083761  0.90599757    -0.22200
C181        C  0.50745373  0.86542006  0.99559440    -0.17500
C182        C  0.50451308  0.00086133  0.86251805    -0.17500
C183        C  0.49779747  0.12678408  0.00182257    -0.17500
C184        C  0.49687364  0.99132616  0.13527552    -0.17500
H185        H  0.54603300  0.83187289  0.89741454     0.15400
H186        H  0.54272879  0.90430134  0.82530531     0.15400
H187        H  0.51088634  0.09247358  0.17638273     0.15400
H188        H  0.51188484  0.16501869  0.10476609     0.15400
H189        H  0.48332250  0.82029165  0.09445404     0.13600
H190        H  0.47953317  0.88792040  0.17005682     0.13600
H191        H  0.48717056  0.10397778  0.82572045     0.13600
H192        H  0.48412484  0.17204277  0.90105230     0.13600
H193        H  0.48303989  0.96663436  0.96508011     0.26900
H194        H  0.48560077  0.02314011  0.02981697     0.26900
N195        N  0.49529566  0.94294915  0.55852228    -0.35900
N196        N  0.49757645  0.05280717  0.55380250    -0.56400
N197        N  0.49257777  0.04826134  0.43806960    -0.35900
N198        N  0.48530178  0.93871441  0.44295639    -0.56400
C199        C  0.49190452  0.95323682  0.61008924     0.27700
C200        C  0.48260221  0.89317411  0.55162930     0.27700
C201        C  0.48169670  0.09856198  0.44673711     0.27700
C202        C  0.48003528  0.03803341  0.38818867     0.27700
C203        C  0.50727034  0.04751718  0.60525842     0.36300
C204        C  0.50313734  0.10318401  0.54165471     0.36300
C205        C  0.49097689  0.88811695  0.45443105     0.36300
C206        C  0.49235510  0.94351924  0.39104713     0.36300
C207        C  0.47790382  0.90882971  0.63616887    -0.21100
C208        C  0.47172329  0.87123089  0.59941789    -0.21100
C209        C  0.46176766  0.12034301  0.40186764    -0.21100
C210        C  0.46146031  0.08240873  0.36481781    -0.21100
C211        C  0.51838918  0.09502677  0.62598614    -0.22200
C212        C  0.51638121  0.13002562  0.58582922    -0.22200
C213        C  0.50104771  0.86065575  0.40943150    -0.22200
C214        C  0.50204065  0.89576126  0.36939079    -0.22200
C215        C  0.50250975  0.00108540  0.63435864    -0.17500
C216        C  0.48460439  0.86559324  0.50421431    -0.17500
C217        C  0.48684722  0.99014833  0.36276360    -0.17500
C218        C  0.49224282  0.12637216  0.49266860    -0.17500
H219        H  0.47293346  0.90359706  0.67744920     0.15400
H220        H  0.46129574  0.83180218  0.60720960     0.15400
H221        H  0.44945858  0.15986491  0.39603224     0.15400
H222        H  0.44876042  0.08696762  0.32527286     0.15400
H223        H  0.52624726  0.10389090  0.66600589     0.13600
H224        H  0.52290578  0.17090960  0.58919603     0.13600
H225        H  0.50681313  0.81946964  0.40571645     0.13600
H226        H  0.50843860  0.88704172  0.32893269     0.13600
H227        H  0.51042356  0.96637216  0.53006378     0.26900
H228        H  0.51269721  0.02419742  0.46293998     0.26900
C229        C  0.45929958  0.99859269  0.72147562    -0.11500
C230        C  0.50404839  0.00314890  0.69304455     0.05500
C231        C  0.54918719  0.00852475  0.72104229    -0.06800
C232        C  0.54883538  0.00808960  0.77581620    -0.07500
C233        C  0.50414707  0.00197208  0.80397340    -0.02100
C234        C  0.45909672  0.99762117  0.77607107     0.04700
N235        N  0.41267450  0.99174533  0.80281205     0.67200
H236        H  0.42421839  0.99487095  0.70100822     0.16100
H237        H  0.58376673  0.01196471  0.79651228     0.15800
N238        N  0.59584798  0.01376230  0.69451437     0.74900
O239        O  0.39602607  0.94717673  0.81083508    -0.38500
O240        O  0.38443452  0.03052489  0.80974288    -0.38500
O241        O  0.61612646  0.05731325  0.69243290    -0.39200
O242        O  0.62173492  0.97395753  0.68453918    -0.39200
C243        C  0.44852636  0.98402439  0.21932221    -0.11500
C244        C  0.49474459  0.98967005  0.19380869     0.05500
C245        C  0.53824581  0.99415459  0.22437253    -0.06800
C246        C  0.53479126  0.99450430  0.27888034    -0.07500
C247        C  0.48860338  0.98918330  0.30435751    -0.02100
C248        C  0.44525161  0.98315104  0.27391287     0.04700
N249        N  0.39768065  0.97556850  0.29788317     0.67200
H250        H  0.41477660  0.98001795  0.19665439     0.16100
H251        H  0.56855829  0.99840386  0.30155423     0.15800
N252        N  0.58641789  0.99738761  0.20057358     0.74900
O253        O  0.36864400  0.01368941  0.30499521    -0.38500
O254        O  0.38085308  0.93055921  0.30182524    -0.38500
O255        O  0.60901798  0.03970465  0.20047046    -0.39200
O256        O  0.61030203  0.95646121  0.18991919    -0.39200
C257        C  0.04734974  0.97850980  0.78249376    -0.11500
C258        C  0.01207747  0.00930259  0.80916206     0.05500
C259        C  0.97646688  0.03757226  0.77970393    -0.06800
C260        C  0.97684919  0.03477815  0.72515675    -0.07500
C261        C  0.01252836  0.00444183  0.69837810    -0.02100
C262        C  0.04796941  0.97596608  0.72796355     0.04700
N263        N  0.08572016  0.94516128  0.70321431     0.67200
H264        H  0.07492181  0.95640827  0.80428598     0.16100
H265        H  0.94887387  0.05641561  0.70346223     0.15800
N266        N  0.93871723  0.06822604  0.80462510     0.74900
O267        O  0.12678057  0.96530689  0.69092388    -0.38500
O268        O  0.08259331  0.89670719  0.70447301    -0.38500
O269        O  0.94172317  0.11669001  0.80352929    -0.39200
O270        O  0.89791482  0.04788173  0.81750419    -0.39200
C271        C  0.97909608  0.97228607  0.28211484    -0.11500
C272        C  0.01716101  0.99752141  0.30902836     0.05500
C273        C  0.05394151  0.02351098  0.27982583    -0.06800
C274        C  0.05161228  0.02470432  0.22530503    -0.07500
C275        C  0.01343482  0.99973990  0.19832413    -0.02100
C276        C  0.97708761  0.97287746  0.22753471     0.04700
N277        N  0.93719099  0.94686755  0.20250432     0.67200
H278        H  0.95038501  0.95232382  0.30371655     0.16100
H279        H  0.08031763  0.04474020  0.20376785     0.15800
N280        N  0.09493167  0.04750918  0.30495217     0.74900
O281        O  0.93970888  0.89854377  0.19762844    -0.38500
O282        O  0.89537627  0.96957915  0.19759562    -0.38500
O283        O  0.13562571  0.02275356  0.31024647    -0.39200
O284        O  0.09422550  0.09571100  0.31104151    -0.39200
C285        C  0.51848009  0.26706430  0.46053231    -0.11500
C286        C  0.48318248  0.29300009  0.49198428     0.05500
C287        C  0.44897225  0.26318936  0.52111893    -0.06800
C288        C  0.45187389  0.20932391  0.51956680    -0.07500
C289        C  0.48872058  0.18380892  0.49018507    -0.02100
C290        C  0.52159461  0.21317373  0.45949674     0.04700
N291        N  0.55907096  0.18897225  0.42788478     0.67200
H292        H  0.54483027  0.28860833  0.43730130     0.16100
H293        H  0.42575191  0.18709867  0.54246218     0.15800
N294        N  0.41149901  0.28657323  0.55326660     0.74900
O295        O  0.60190139  0.17999471  0.44657824    -0.38500
O296        O  0.55341935  0.18831424  0.37937366    -0.38500
O297        O  0.36732671  0.29133642  0.53659043    -0.39200
O298        O  0.41965942  0.29132724  0.60110564    -0.39200
C299        C  0.43945615  0.72765445  0.49763239    -0.11500
C300        C  0.48440283  0.69979705  0.50508920     0.05500
C301        C  0.52894405  0.72714361  0.51401988    -0.06800
C302        C  0.52774691  0.78101152  0.51513726    -0.07500
C303        C  0.48301977  0.80851816  0.50699297    -0.02100
C304        C  0.43847704  0.78160821  0.49855217     0.04700
N305        N  0.39211687  0.80857314  0.49057525     0.67200
H306        H  0.40486396  0.70749333  0.49103978     0.16100
H307        H  0.56224049  0.80163235  0.52086091     0.15800
N308        N  0.57625450  0.70113105  0.51863747     0.74900
O309        O  0.37734633  0.81753928  0.44499411    -0.38500
O310        O  0.36167497  0.81331489  0.52778265    -0.38500
O311        O  0.60351991  0.69575409  0.47896249    -0.39200
O312        O  0.59509753  0.69417324  0.56292129    -0.39200
C313        C  0.54489882  0.20830984  0.99984524    -0.11500
C314        C  0.49881394  0.18370427  0.00314639     0.05500
C315        C  0.45434534  0.21308248  0.00676242    -0.06800
C316        C  0.45652151  0.26688527  0.00742200    -0.07500
C317        C  0.50272756  0.29190729  0.00385270    -0.02100
C318        C  0.54725605  0.26204219  0.00013862     0.04700
N319        N  0.59523668  0.28554092  0.99854095     0.67200
H320        H  0.57918051  0.18557565  0.99724000     0.16100
H321        H  0.42195069  0.28916972  0.00971195     0.15800
N322        N  0.40685747  0.18855821  0.00847322     0.74900
O323        O  0.61757005  0.29471911  0.04039470    -0.38500
O324        O  0.61925529  0.28691968  0.95640061    -0.38500
O325        O  0.39053609  0.17100642  0.05084723    -0.39200
O326        O  0.38504988  0.17757330  0.96678124    -0.39200
C327        C  0.54836493  0.78086413  0.01742173    -0.11500
C328        C  0.50916517  0.80805438  0.99321236     0.05500
C329        C  0.47161540  0.78049902  0.96778866    -0.06800
C330        C  0.47309479  0.72656445  0.96801492    -0.07500
C331        C  0.51145528  0.69878639  0.99360798    -0.02100
C332        C  0.54986125  0.72684490  0.01802740     0.04700
N333        N  0.59086706  0.70149554  0.04342121     0.67200
H334        H  0.57775494  0.80183576  0.03651592     0.16100
H335        H  0.44318660  0.70643021  0.94891679     0.15800
N336        N  0.43088457  0.80680621  0.94283687     0.74900
O337        O  0.63114575  0.69383910  0.01878563    -0.38500
O338        O  0.59101909  0.69839310  0.09222035    -0.38500
O339        O  0.43097661  0.81163125  0.89417105    -0.39200
O340        O  0.39102161  0.81563726  0.96779963    -0.39200
C341        C  0.50669717  0.44668574  0.71969585    -0.11500
C342        C  0.49284024  0.49277602  0.69500598     0.05500
C343        C  0.48242306  0.53727244  0.72385745    -0.06800
C344        C  0.48560004  0.53509006  0.77742311    -0.07500
C345        C  0.49983409  0.48917430  0.80267395    -0.02100
C346        C  0.51090080  0.44459346  0.77341939     0.04700
N347        N  0.52534238  0.39689736  0.79742695     0.67200
H348        H  0.51484905  0.41244264  0.69711336     0.16100
H349        H  0.47721248  0.56972187  0.79928873     0.15800
N350        N  0.46681359  0.58433595  0.69938213     0.74900
O351        O  0.49258369  0.36353306  0.80658751    -0.38500
O352        O  0.57102754  0.38387613  0.79863751    -0.38500
O353        O  0.42077520  0.59563061  0.69697618    -0.39200
O354        O  0.49861782  0.61863509  0.69011845    -0.39200
C355        C  0.49667898  0.54701820  0.21958966    -0.11500
C356        C  0.50271487  0.49908284  0.19563294     0.05500
C357        C  0.50682186  0.45378539  0.22539717    -0.06800
C358        C  0.50485034  0.45700783  0.27889825    -0.07500
C359        C  0.49796248  0.50472718  0.30315768    -0.02100
C360        C  0.49368755  0.55019384  0.27331937     0.04700
N361        N  0.48766710  0.59965708  0.29679687     0.67200
H362        H  0.49340127  0.58191408  0.19647439     0.16100
H363        H  0.50790860  0.42180535  0.30157047     0.15800
N364        N  0.51443442  0.40450779  0.20194157     0.74900
O365        O  0.52583497  0.62628817  0.30535184    -0.38500
O366        O  0.44496356  0.62111291  0.29743929    -0.38500
O367        O  0.55812641  0.38553047  0.19930087    -0.39200
O368        O  0.47743327  0.37579870  0.19484420    -0.39200
C369        C  0.03120388  0.27259986  0.47887094    -0.11500
C370        C  0.98791399  0.29637120  0.49960621     0.05500
C371        C  0.94968809  0.26471416  0.51979885    -0.06800
C372        C  0.95594754  0.21096213  0.51959533    -0.07500
C373        C  0.99958681  0.18788702  0.49952325    -0.02100
C374        C  0.03726551  0.21908298  0.47874149     0.04700
N375        N  0.08251741  0.19698778  0.45850965     0.67200
H376        H  0.06128253  0.29563082  0.46335433     0.16100
H377        H  0.92658466  0.18700264  0.53520138     0.15800
N378        N  0.90398420  0.28608059  0.53972770     0.74900
O379        O  0.08721379  0.19114422  0.41023790    -0.38500
O380        O  0.12087143  0.19455622  0.48683733    -0.38500
O381        O  0.86592061  0.28822323  0.51095065    -0.39200
O382        O  0.89852879  0.29072994  0.58805661    -0.39200
C383        C  0.03911812  0.72783125  0.52581907    -0.11500
C384        C  0.99590526  0.70476106  0.50569764     0.05500
C385        C  0.95702623  0.73729561  0.48637118    -0.06800
C386        C  0.96198240  0.79090378  0.48739955    -0.07500
C387        C  0.00519987  0.81334241  0.50689313    -0.02100
C388        C  0.04408759  0.78159625  0.52607050     0.04700
N389        N  0.08936469  0.80365548  0.54438029     0.67200
H390        H  0.06972729  0.70408533  0.54036983     0.16100
H391        H  0.93193344  0.81529509  0.47259666     0.15800
N392        N  0.91187947  0.71685585  0.46603055     0.74900
O393        O  0.09420422  0.81320989  0.59194980    -0.38500
O394        O  0.12067345  0.82114963  0.51234848    -0.38500
O395        O  0.87371846  0.71420771  0.49478644    -0.39200
O396        O  0.90697553  0.71279921  0.41763254    -0.39200
C397        C  0.76636966  0.45749223  0.50919207    -0.11500
C398        C  0.78969758  0.50519654  0.50214239     0.05500
C399        C  0.75945123  0.54986590  0.49532659    -0.06800
C400        C  0.70713422  0.54600006  0.49625949    -0.07500
C401        C  0.68407729  0.49812499  0.50266211    -0.02100
C402        C  0.71422574  0.45354924  0.50903512     0.04700
N403        N  0.69255390  0.40424433  0.51758684     0.67200
H404        H  0.78878923  0.42269889  0.51445358     0.16100
H405        H  0.68436512  0.58061047  0.49133754     0.15800
N406        N  0.78098733  0.59957100  0.48908402     0.74900
O407        O  0.68834458  0.37367564  0.48007749    -0.38500
O408        O  0.68870201  0.38717918  0.56326907    -0.38500
O409        O  0.78233427  0.61999998  0.44463947    -0.39200
O410        O  0.78763921  0.62721065  0.52844410    -0.39200
C411        C  0.20934197  0.48999532  0.45598950    -0.11500
C412        C  0.18453054  0.49404430  0.50386251     0.05500
C413        C  0.21312834  0.49801884  0.54950064    -0.06800
C414        C  0.26547175  0.49765428  0.54644832    -0.07500
C415        C  0.29017072  0.49503042  0.49845410    -0.02100
C416        C  0.26163251  0.49120814  0.45284507     0.04700
N417        N  0.28508295  0.48706640  0.40319598     0.67200
H418        H  0.18794929  0.48684729  0.42057664     0.16100
H419        H  0.28696497  0.50044848  0.58183459     0.15800
N420        N  0.18982305  0.50130728  0.59929795     0.74900
O421        O  0.29383922  0.44300867  0.38450245    -0.38500
O422        O  0.28609571  0.52604182  0.37380132    -0.38500
O423        O  0.18804723  0.46157646  0.62760125    -0.39200
O424        O  0.18255631  0.54500334  0.61939809    -0.39200
C425        C  0.05472101  0.22034526  0.02424797    -0.11500
C426        C  0.01371480  0.19289925  0.00636851     0.05500
C427        C  0.97132384  0.21988020  0.98783552    -0.06800
C428        C  0.97057896  0.27397184  0.98709065    -0.07500
C429        C  0.01155048  0.30207896  0.00543599    -0.02100
C430        C  0.05411265  0.27434715  0.02397003     0.04700
N431        N  0.09787312  0.30015296  0.04098282     0.67200
H432        H  0.08765435  0.19964175  0.03802862     0.16100
H433        H  0.93741680  0.29400077  0.97298955     0.15800
N434        N  0.92851736  0.19250065  0.97057517     0.74900
O435        O  0.10484780  0.30625786  0.08885835    -0.38500
O436        O  0.13409637  0.30542401  0.01001282    -0.38500
O437        O  0.90043939  0.17098411  0.00331876    -0.39200
O438        O  0.92388651  0.18223752  0.92313373    -0.39200
C439        C  0.96383964  0.73940947  0.01637116    -0.11500
C440        C  0.00536787  0.71093129  0.99756326     0.05500
C441        C  0.04786218  0.73795685  0.97970711    -0.06800
C442        C  0.04791665  0.79175703  0.98074199    -0.07500
C443        C  0.00662975  0.81947554  0.99965048    -0.02100
C444        C  0.96424881  0.79330089  0.01736958     0.04700
N445        N  0.92137948  0.82126268  0.03600967     0.67200
H446        H  0.93073307  0.71989004  0.03004390     0.16100
H447        H  0.08073429  0.81209413  0.96747436     0.15800
N448        N  0.09211526  0.71164867  0.96230141     0.74900
O449        O  0.89238415  0.84359571  0.00427389    -0.38500
O450        O  0.91713475  0.83061466  0.08374681    -0.38500
O451        O  0.10163875  0.70976639  0.91443470    -0.39200
O452        O  0.12631404  0.70099793  0.99438530    -0.39200
C453        C  0.78370372  0.46277665  0.97610174    -0.11500
C454        C  0.80669644  0.49841852  0.00884360     0.05500
C455        C  0.77587437  0.52947609  0.04109586    -0.06800
C456        C  0.72377200  0.52599344  0.03820028    -0.07500
C457        C  0.70076017  0.49142659  0.00435362    -0.02100
C458        C  0.73159472  0.45873852  0.97380139     0.04700
N459        N  0.71099913  0.42100779  0.94023872     0.67200
H460        H  0.80622587  0.43783421  0.95151122     0.16100
H461        H  0.70126305  0.55082536  0.06292286     0.15800
N462        N  0.79646136  0.56422374  0.07779002     0.74900
O463        O  0.70566384  0.43127841  0.89272724    -0.38500
O464        O  0.70823563  0.37487669  0.95554658    -0.38500
O465        O  0.79648830  0.61185163  0.06771784    -0.39200
O466        O  0.80319707  0.54920096  0.12385352    -0.39200
C467        C  0.28154296  0.52060409  0.95781408    -0.11500
C468        C  0.30636778  0.50072476  0.00166546     0.05500
C469        C  0.27742831  0.48091403  0.04297479    -0.06800
C470        C  0.22521377  0.48241875  0.04013692    -0.07500
C471        C  0.20036187  0.50255887  0.99647733    -0.02100
C472        C  0.22923282  0.52105752  0.95453588     0.04700
N473        N  0.20642807  0.53792083  0.90727048     0.67200
H474        H  0.30287521  0.53473259  0.92505089     0.16100
H475        H  0.20403613  0.46786632  0.07282122     0.15800
N476        N  0.30008752  0.45977334  0.08859780     0.74900
O477        O  0.20029976  0.58550765  0.89871731    -0.38500
O478        O  0.20274098  0.50662895  0.87028532    -0.38500
O479        O  0.30139343  0.48665981  0.12912921    -0.39200
O480        O  0.30677176  0.41163748  0.09206222    -0.39200
C481        C  0.98125382  0.45865044  0.78234203    -0.11500
C482        C  0.99378776  0.50525090  0.80585941     0.05500
C483        C  0.00496993  0.54862287  0.77501674    -0.06800
C484        C  0.00228106  0.54488874  0.72156230    -0.07500
C485        C  0.98986963  0.49831927  0.69811256    -0.02100
C486        C  0.98011844  0.45456490  0.72871728     0.04700
N487        N  0.97302169  0.40504753  0.70613891     0.67200
H488        H  0.97438844  0.42456698  0.80560682     0.16100
H489        H  0.00992151  0.57879347  0.69828839     0.15800
N490        N  0.01884926  0.59674126  0.79705079     0.74900
O491        O  0.01079446  0.37781365  0.69409113    -0.38500
O492        O  0.93055421  0.38456957  0.70839721    -0.38500
O493        O  0.06424677  0.60945953  0.79644393    -0.39200
O494        O  0.98554128  0.63064353  0.80563961    -0.39200
C495        C  0.98659944  0.55400028  0.28096231    -0.11500
C496        C  0.99262298  0.50609415  0.30567298     0.05500
C497        C  0.00421719  0.46181372  0.27637023    -0.06800
C498        C  0.00905931  0.46608430  0.22307003    -0.07500
C499        C  0.00273149  0.51380005  0.19827703    -0.02100
C500        C  0.99194932  0.55830387  0.22748538     0.04700
N501        N  0.98889458  0.60823413  0.20393912     0.67200
H502        H  0.97913290  0.58849669  0.30337118     0.16100
H503        H  0.01653789  0.43146326  0.20083930     0.15800
N504        N  0.00945615  0.41195528  0.29972477     0.74900
O505        O  0.94669743  0.63003980  0.19843607    -0.38500
O506        O  0.02799307  0.63463369  0.19992539    -0.38500
O507        O  0.97219787  0.38271109  0.30133878    -0.39200
O508        O  0.05270464  0.39308866  0.30692374    -0.39200
loop_ 
_geom_bond_atom_site_label_1 
_geom_bond_atom_site_label_2 
_geom_bond_distance 
_geom_bond_site_symmetry_2 
_ccdc_geom_bond_type 
O1           C17   1.274       .  A
O1           Zn7   1.984       .  S
C2           O18   1.276   1_454  A
C2           O15   1.273       .  A
C2          C429   1.495       .  S
O3           C16   1.273       .  A
O3          Cd10   2.068       .  S
O4           C22   1.273       .  A
O4          Cd13   2.029       .  S
O5           C19   1.272       .  A
O5           Cd9   2.065       .  S
O6           C17   1.270   1_455  A
O6           Cd9   2.019       .  S
Zn7          O18   2.046       .  S
Zn7          O20   2.021       .  S
Zn7          O12   1.932   1_656  S
O8           C19   1.273   1_554  A
O8          Cd13   2.057       .  S
Cd9          O11   2.064       .  S
Cd9          O12   1.990   1_556  S
Cd10         O14   2.069       .  S
Cd10         O23   2.032       .  S
Cd10         O12   1.998   1_655  S
O11          C21   1.272       .  A
O12         Cd13   1.977       .  S
Cd13         O15   2.073       .  S
O14          C21   1.274   1_654  A
C16          O20   1.275   1_554  A
C16         C454   1.490       .  S
C17         C482   1.457       .  S
C19         C471   1.484       .  S
C21         C440   1.487       .  S
C22          O23   1.271   1_455  A
C22         C499   1.454       .  S
O24          C40   1.276   1_455  A
O24         Zn30   2.037       .  S
C25          O41   1.271   1_655  A
C25          O38   1.272       .  A
C25         C485   1.454       .  S
O26          C39   1.272       .  A
O26         Cd33   2.062       .  S
O27          C45   1.273       .  A
O27         Cd36   2.080       .  S
O28          C42   1.276       .  A
O28         Cd32   2.086       .  S
O29          C40   1.274       .  A
O29         Cd32   2.074       .  S
Zn30         O41   1.958       .  S
Zn30         O43   2.026       .  S
Zn30         O35   1.937   1_455  S
O31          C42   1.274       .  A
O31         Cd36   2.063       .  S
Cd32         O34   2.046       .  S
Cd32         O35   1.998       .  S
Cd33         O37   2.018       .  S
Cd33         O46   2.057       .  S
Cd33         O35   1.980   1_455  S
O34          C44   1.274       .  A
O35         Cd36   1.998       .  S
Cd36         O38   2.035       .  S
O37          C44   1.270   1_455  A
C39          O43   1.272       .  A
C39         C412   1.479       .  S
C40         C384   1.494       .  S
C42         C398   1.484       .  S
C44         C496   1.456       .  S
C45          O46   1.273   1_655  A
C45         C370   1.488       .  S
O47          C63   1.273   1_554  A
O47         Zn53   2.027       .  S
C48          O64   1.271       .  A
C48          O61   1.270       .  A
C48         C356   1.446       .  S
O49          C62   1.272   1_556  A
O49         Cd56   2.062       .  S
O50          C68   1.272       .  A
O50         Cd59   2.061       .  S
O51          C65   1.275   1_556  A
O51         Cd55   2.075       .  S
O52          C63   1.275       .  A
O52         Cd55   2.077       .  S
Zn53         O64   1.977       .  S
Zn53         O66   2.011       .  S
Zn53         O58   1.933       .  S
O54          C65   1.272       .  A
O54         Cd59   2.062       .  S
Cd55         O57   2.030       .  S
Cd55         O58   1.980   1_556  S
Cd56         O60   2.039       .  S
Cd56         O69   2.063       .  S
Cd56         O58   1.995   1_556  S
O57          C67   1.273       .  A
O58         Cd59   1.988       .  S
Cd59         O61   2.021       .  S
O60          C67   1.272       .  A
C62          O66   1.274       .  A
C62         C457   1.489       .  S
C63         C331   1.494       .  S
C65         C468   1.485       .  S
C67         C345   1.460       .  S
C68          O69   1.272   1_554  A
C68         C317   1.476       .  S
O70          C86   1.271       .  A
O70         Zn76   2.007       .  S
C71          O87   1.272       .  A
C71          O84   1.271       .  A
C71         C342   1.445       .  S
O72          C85   1.273       .  A
O72         Cd79   2.073       .  S
O73          C91   1.272       .  A
O73         Cd82   2.069       .  S
O74          C88   1.275       .  A
O74         Cd78   2.083       .  S
O75          C86   1.275       .  A
O75         Cd78   2.076       .  S
Zn76         O87   1.978       .  S
Zn76         O89   2.019       .  S
Zn76         O81   1.933       .  S
O77          C88   1.273       .  A
O77         Cd82   2.062       .  S
Cd78         O80   2.039       .  S
Cd78         O81   1.998       .  S
Cd79         O83   2.026       .  S
Cd79         O92   2.072       .  S
Cd79         O81   1.984       .  S
O80          C90   1.272       .  A
O81         Cd82   1.987       .  S
Cd82         O84   2.030       .  S
O83          C90   1.273       .  A
C85          O89   1.273       .  A
C85         C401   1.478       .  S
C86         C300   1.482       .  S
C88         C415   1.477       .  S
C90         C359   1.453       .  S
C91          O92   1.275       .  A
C91         C286   1.492       .  S
N93          C98   1.358       .  A
N93          C97   1.350   1_455  A
N93         H125   1.039       .  S
N94         C101   1.349       .  A
N94         C102   1.355       .  A
N95         C100   1.353       .  A
N95          C99   1.362       .  A
N95         H126   1.039       .  S
N96         C103   1.358       .  A
N96         C104   1.350       .  A
C97         C105   1.388       .  A
C97         C113   1.415   1_656  A
C98         C114   1.418   1_565  A
C98         C106   1.385   1_455  A
C99         C107   1.385   1_455  A
C99         C116   1.423       .  A
C100        C115   1.422       .  A
C100        C108   1.389   1_455  A
C101        C113   1.414       .  A
C101        C109   1.388       .  A
C102        C116   1.415   1_565  A
C102        C110   1.384       .  A
C103        C111   1.383       .  A
C103        C114   1.419       .  A
C104        C112   1.389       .  A
C104        C115   1.420   1_556  A
C105        C106   1.376       .  A
C105        H117   1.082       .  S
C106        H118   1.082       .  S
C107        C108   1.379       .  A
C107        H119   1.082       .  S
C108        H120   1.082       .  S
C109        C110   1.374       .  A
C109        H121   1.082       .  S
C110        H122   1.082       .  S
C111        C112   1.377       .  A
C111        H123   1.082       .  S
C112        H124   1.082       .  S
C113        C443   1.476   1_554  S
C114        C258   1.512       .  S
C115        C426   1.486       .  S
C116        C275   1.512   1_545  S
N127        C132   1.353       .  A
N127        C131   1.361       .  A
N127        H159   1.039       .  S
N128        C135   1.358       .  A
N128        C136   1.352       .  A
N129        C134   1.359       .  A
N129        C133   1.352       .  A
N129        H160   1.039       .  S
N130        C137   1.351       .  A
N130        C138   1.358       .  A
C131        C139   1.385   1_455  A
C131        C147   1.422   1_565  A
C132        C148   1.422       .  A
C132        C140   1.389   1_455  A
C133        C141   1.389   1_455  A
C133        C150   1.419       .  A
C134        C149   1.419   1_545  A
C134        C142   1.385   1_455  A
C135        C147   1.420       .  A
C135        C143   1.385       .  A
C136        C150   1.418       .  A
C136        C144   1.387       .  A
C137        C145   1.389       .  A
C137        C148   1.419       .  A
C138        C146   1.384       .  A
C138        C149   1.419       .  A
C139        C140   1.378       .  A
C139        H151   1.082       .  S
C140        H152   1.082       .  S
C141        C142   1.376       .  A
C141        H153   1.082       .  S
C142        H154   1.082       .  S
C143        C144   1.373       .  A
C143        H155   1.082       .  S
C144        H156   1.082       .  S
C145        C146   1.375       .  A
C145        H157   1.082       .  S
C146        H158   1.082       .  S
C147        C261   1.515       .  S
C148        C387   1.487       .  S
C149        C272   1.511       .  S
C150        C373   1.486   1_455  S
N161        C166   1.361       .  A
N161        C165   1.352       .  A
N161        H193   1.042       .  S
N162        C169   1.352       .  A
N162        C170   1.359       .  A
N163        C168   1.351       .  A
N163        C167   1.361       .  A
N163        H194   1.040       .  S
N164        C171   1.358       .  A
N164        C172   1.351       .  A
C165        C173   1.389       .  A
C165        C181   1.423       .  A
C166        C182   1.422   1_565  A
C166        C174   1.384       .  A
C167        C175   1.386       .  A
C167        C184   1.424   1_545  A
C168        C183   1.423       .  A
C168        C176   1.390       .  A
C169        C181   1.424   1_554  A
C169        C177   1.389       .  A
C170        C184   1.421       .  A
C170        C178   1.384       .  A
C171        C179   1.383       .  A
C171        C182   1.417       .  A
C172        C180   1.390       .  A
C172        C183   1.421   1_556  A
C173        C174   1.377       .  A
C173        H185   1.082       .  S
C174        H186   1.082       .  S
C175        C176   1.376       .  A
C175        H187   1.082       .  S
C176        H188   1.082       .  S
C177        C178   1.374       .  A
C177        H189   1.082       .  S
C178        H190   1.082       .  S
C179        C180   1.373       .  A
C179        H191   1.082       .  S
C180        H192   1.082       .  S
C181        C328   1.490       .  S
C182        C233   1.512       .  S
C183        C314   1.479       .  S
C184        C244   1.512       .  S
N195        C200   1.354       .  A
N195        C199   1.362       .  A
N195        H227   1.036       .  S
N196        C203   1.360       .  A
N196        C204   1.353       .  A
N197        C202   1.360       .  A
N197        C201   1.353       .  A
N197        H228   1.039       .  S
N198        C205   1.351       .  A
N198        C206   1.358       .  A
C199        C207   1.387       .  A
C199        C215   1.427   1_565  A
C200        C216   1.422       .  A
C200        C208   1.388       .  A
C201        C209   1.390       .  A
C201        C218   1.423       .  A
C202        C217   1.418   1_545  A
C202        C210   1.383       .  A
C203        C215   1.424       .  A
C203        C211   1.384       .  A
C204        C218   1.426       .  A
C204        C212   1.389       .  A
C205        C213   1.390       .  A
C205        C216   1.420       .  A
C206        C214   1.383       .  A
C206        C217   1.416       .  A
C207        C208   1.377       .  A
C207        H219   1.082       .  S
C208        H220   1.082       .  S
C209        C210   1.377       .  A
C209        H221   1.082       .  S
C210        H222   1.082       .  S
C211        C212   1.375       .  A
C211        H223   1.082       .  S
C212        H224   1.082       .  S
C213        C214   1.375       .  A
C213        H225   1.082       .  S
C214        H226   1.082       .  S
C215        C230   1.517       .  S
C216        C303   1.484       .  S
C217        C247   1.509       .  S
C218        C289   1.493       .  S
C229        C230   1.407   1_565  A
C229        C234   1.409       .  A
C229        H236   1.084       .  S
C230        C231   1.417       .  A
C231        C232   1.414       .  A
C231        N238   1.428       .  S
C232        C233   1.406       .  A
C232        H237   1.083       .  S
C233        C234   1.411   1_545  A
C234        N235   1.427       .  S
N235        O239   1.262       .  A
N235        O240   1.262   1_565  A
N238        O242   1.262   1_545  A
N238        O241   1.262       .  A
C243        C244   1.407       .  A
C243        C248   1.412       .  A
C243        H250   1.083       .  S
C244        C245   1.414       .  A
C245        C246   1.410       .  A
C245        N252   1.428       .  S
C246        C247   1.405       .  A
C246        H251   1.084       .  S
C247        C248   1.413       .  A
C248        N249   1.428       .  S
N249        O253   1.262   1_565  A
N249        O254   1.262       .  A
N252        O256   1.262       .  A
N252        O255   1.262   1_565  A
C257        C258   1.407   1_565  A
C257        C262   1.410       .  A
C257        H264   1.084       .  S
C258        C259   1.414   1_455  A
C259        C260   1.410       .  A
C259        N266   1.428       .  S
C260        C261   1.409   1_655  A
C260        H265   1.084       .  S
C261        C262   1.415   1_545  A
C262        N263   1.429       .  S
N263        O267   1.262       .  A
N263        O268   1.262       .  A
N266        O270   1.262       .  A
N266        O269   1.262       .  A
C271        C272   1.406   1_655  A
C271        C276   1.410       .  A
C271        H278   1.084       .  S
C272        C273   1.414   1_565  A
C273        C274   1.409       .  A
C273        N280   1.428       .  S
C274        C275   1.406   1_545  A
C274        H279   1.084       .  S
C275        C276   1.417   1_455  A
C276        N277   1.429       .  S
N277        O281   1.262       .  A
N277        O282   1.262       .  A
N280        O284   1.262       .  A
N280        O283   1.262       .  A
C285        C286   1.408       .  A
C285        C290   1.400       .  A
C285        H292   1.083       .  S
C286        C287   1.418       .  A
C287        C288   1.400       .  A
C287        N294   1.428       .  S
C288        C289   1.401       .  A
C288        H293   1.084       .  S
C289        C290   1.411       .  A
C290        N291   1.430       .  S
N291        O295   1.261       .  A
N291        O296   1.262       .  A
N294        O298   1.262       .  A
N294        O297   1.262       .  A
C299        C300   1.405       .  A
C299        C304   1.401       .  A
C299        H306   1.084       .  S
C300        C301   1.416       .  A
C301        C302   1.398       .  A
C301        N308   1.429       .  S
C302        C303   1.398       .  A
C302        H307   1.084       .  S
C303        C304   1.408       .  A
C304        N305   1.428       .  S
N305        O309   1.262       .  A
N305        O310   1.262       .  A
N308        O312   1.262       .  A
N308        O311   1.262       .  A
C313        C314   1.398   1_556  A
C313        C318   1.397   1_556  A
C313        H320   1.084       .  S
C314        C315   1.405       .  A
C315        C316   1.399       .  A
C315        N322   1.429       .  S
C316        C317   1.407       .  A
C316        H321   1.084       .  S
C317        C318   1.413       .  A
C318        N319   1.429   1_554  S
N319        O323   1.262   1_556  A
N319        O324   1.262       .  A
N322        O326   1.262   1_554  A
N322        O325   1.262       .  A
C327        C328   1.401   1_554  A
C327        C332   1.402       .  A
C327        H334   1.084       .  S
C328        C329   1.408       .  A
C329        C330   1.400       .  A
C329        N336   1.429       .  S
C330        C331   1.408       .  A
C330        H335   1.083       .  S
C331        C332   1.419   1_556  A
C332        N333   1.429       .  S
N333        O337   1.262       .  A
N333        O338   1.262       .  A
N336        O340   1.262       .  A
N336        O339   1.262       .  A
C341        C342   1.398       .  A
C341        C346   1.393       .  A
C341        H348   1.084       .  S
C342        C343   1.401       .  A
C343        C344   1.386       .  A
C343        N350   1.429       .  S
C344        C345   1.403       .  A
C344        H349   1.084       .  S
C345        C346   1.412       .  A
C346        N347   1.430       .  S
N347        O351   1.262       .  A
N347        O352   1.262       .  A
N350        O354   1.262       .  A
N350        O353   1.262       .  A
C355        C356   1.399       .  A
C355        C360   1.392       .  A
C355        H362   1.084       .  S
C356        C357   1.404       .  A
C357        C358   1.385       .  A
C357        N364   1.429       .  S
C358        C359   1.400       .  A
C358        H363   1.084       .  S
C359        C360   1.409       .  A
C360        N361   1.429       .  S
N361        O365   1.262       .  A
N361        O366   1.262       .  A
N364        O368   1.262       .  A
N364        O367   1.262       .  A
C369        C370   1.408   1_455  A
C369        C374   1.396       .  A
C369        H376   1.083       .  S
C370        C371   1.417       .  A
C371        C372   1.403       .  A
C371        N378   1.429       .  S
C372        C373   1.402       .  A
C372        H377   1.084       .  S
C373        C374   1.405   1_655  A
C374        N375   1.429       .  S
N375        O379   1.262       .  A
N375        O380   1.262       .  A
N378        O382   1.262       .  A
N378        O381   1.262       .  A
C383        C384   1.411   1_455  A
C383        C388   1.404       .  A
C383        H390   1.083       .  S
C384        C385   1.419       .  A
C385        C386   1.400       .  A
C385        N392   1.428       .  S
C386        C387   1.398   1_655  A
C386        H391   1.084       .  S
C387        C388   1.406       .  A
C388        N389   1.430       .  S
N389        O393   1.262       .  A
N389        O394   1.262       .  A
N392        O396   1.262       .  A
N392        O395   1.262       .  A
C397        C398   1.406       .  A
C397        C402   1.399       .  A
C397        H404   1.084       .  S
C398        C399   1.413       .  A
C399        C400   1.403       .  A
C399        N406   1.429       .  S
C400        C401   1.404       .  A
C400        H405   1.084       .  S
C401        C402   1.409       .  A
C402        N403   1.429       .  S
N403        O407   1.262       .  A
N403        O408   1.262       .  A
N406        O410   1.262       .  A
N406        O409   1.262       .  A
C411        C412   1.404       .  A
C411        C416   1.400       .  A
C411        H418   1.084       .  S
C412        C413   1.412       .  A
C413        C414   1.400       .  A
C413        N420   1.429       .  S
C414        C415   1.403       .  A
C414        H419   1.084       .  S
C415        C416   1.410       .  A
C416        N417   1.429       .  S
N417        O421   1.262       .  A
N417        O422   1.262       .  A
N420        O424   1.262       .  A
N420        O423   1.262       .  A
C425        C426   1.397       .  A
C425        C430   1.401       .  A
C425        H432   1.084       .  S
C426        C427   1.406   1_454  A
C427        C428   1.404       .  A
C427        N434   1.430       .  S
C428        C429   1.410   1_656  A
C428        H433   1.083       .  S
C429        C430   1.419       .  A
C430        N431   1.428       .  S
N431        O435   1.262       .  A
N431        O436   1.262       .  A
N434        O438   1.262       .  A
N434        O437   1.262   1_556  A
C439        C440   1.410   1_654  A
C439        C444   1.399       .  A
C439        H446   1.083       .  S
C440        C441   1.418       .  A
C441        C442   1.397       .  A
C441        N448   1.429       .  S
C442        C443   1.396       .  A
C442        H447   1.084       .  S
C443        C444   1.404   1_456  A
C444        N445   1.430       .  S
N445        O449   1.262       .  A
N445        O450   1.262       .  A
N448        O452   1.262       .  A
N448        O451   1.262       .  A
C453        C454   1.406   1_556  A
C453        C458   1.399       .  A
C453        H460   1.083       .  S
C454        C455   1.415       .  A
C455        C456   1.399       .  A
C455        N462   1.429       .  S
C456        C457   1.406       .  A
C456        H461   1.084       .  S
C457        C458   1.415   1_554  A
C458        N459   1.429       .  S
N459        O463   1.262       .  A
N459        O464   1.262       .  A
N462        O466   1.262       .  A
N462        O465   1.262       .  A
C467        C468   1.406   1_556  A
C467        C472   1.400       .  A
C467        H474   1.084       .  S
C468        C469   1.414       .  A
C469        C470   1.397       .  A
C469        N476   1.429       .  S
C470        C471   1.404   1_554  A
C470        H475   1.084       .  S
C471        C472   1.413       .  A
C472        N473   1.429       .  S
N473        O477   1.262       .  A
N473        O478   1.262       .  A
N476        O480   1.262       .  A
N476        O479   1.262       .  A
C481        C482   1.402       .  A
C481        C486   1.389       .  A
C481        H488   1.084       .  S
C482        C483   1.410   1_655  A
C483        C484   1.386       .  A
C483        N490   1.430       .  S
C484        C485   1.400   1_455  A
C484        H489   1.084       .  S
C485        C486   1.407       .  A
C486        N487   1.430       .  S
N487        O491   1.262   1_655  A
N487        O492   1.262       .  A
N490        O494   1.262   1_455  A
N490        O493   1.262       .  A
C495        C496   1.402       .  A
C495        C500   1.391       .  A
C495        H502   1.084       .  S
C496        C497   1.409   1_655  A
C497        C498   1.386       .  A
C497        N504   1.430       .  S
C498        C499   1.399       .  A
C498        H503   1.084       .  S
C499        C500   1.408   1_455  A
C500        N501   1.430       .  S
N501        O505   1.262       .  A
N501        O506   1.262   1_655  A
N504        O508   1.262       .  A
N504        O507   1.262   1_455  A
