geometry optimzed in LAMMPS
_audit_creation_date              2020-11-30 
_audit_creation_method            'lammps2cif' 
_symmetry_space_group_name_H-M    'P1' 
_symmetry_Int_Tables_number       1 
_symmetry_cell_setting            triclinic 
loop_ 
_symmetry_equiv_pos_as_xyz 
  x,y,z 
_cell_length_a                    65.00832132 
_cell_length_b                    21.931648782475996 
_cell_length_c                    46.92912128210201 
_cell_angle_alpha                 90.22619591037223 
_cell_angle_beta                  90.96811529616942 
_cell_angle_gamma                 90.06088436163256 
loop_ 
_atom_site_label 
_atom_site_type_symbol 
_atom_site_fract_x 
_atom_site_fract_y 
_atom_site_fract_z 
_atom_site_charge 
O1          O  0.68581305  0.65486654  0.31899740    -0.81300
O2          O  0.59057977  0.62947191  0.34446989    -0.66000
O3          O  0.64314072  0.66338219  0.31247971    -1.12600
C4          C  0.64480989  0.81998141  0.38509861     1.05500
O5          O  0.58407165  0.72843118  0.34513789    -0.79200
O6          O  0.61008520  0.82177945  0.33844289    -0.66800
Ni7        Ni  0.66309320  0.60105919  0.30889569     1.34900
C8          C  0.62046364  0.82199897  0.31574021     0.84300
O9          O  0.61117229  0.58144845  0.30023123    -0.79800
O10         O  0.64270440  0.54101580  0.29665098    -0.90100
C11         C  0.57780128  0.67346667  0.34416258     0.83900
O12         O  0.66160000  0.57492146  0.34749372    -0.68300
O13         O  0.62679582  0.80160899  0.39127184    -0.87500
C14         C  0.64578871  0.55880644  0.36113923     0.84700
C15         C  0.62330851  0.53989650  0.29143995     1.06200
H16         H  0.62989980  0.68323904  0.37366235     0.38100
O17         O  0.62535484  0.70343632  0.35637959    -1.10200
O18         O  0.63488146  0.78395655  0.31134643    -0.66900
Ni19       Ni  0.64940896  0.73056402  0.33764904     1.26300
O20         O  0.62775150  0.57803361  0.35446589    -0.67100
O21         O  0.65474763  0.79908398  0.36371296    -0.79400
C22         C  0.68862859  0.71182504  0.31484169     0.84100
O23         O  0.67418585  0.75032101  0.31813124    -0.66600
Ni24       Ni  0.60609412  0.76284857  0.36783647     1.27400
Ni25       Ni  0.61747269  0.64215489  0.32890212     1.26100
H26         H  0.64038787  0.67869167  0.29356137     0.38600
C27         C  0.58009148  0.16128923  0.17626861    -0.02900
C28         C  0.67249676  0.20805016  0.50072510    -0.02900
O29         O  0.81992728  0.37656130  0.08225668    -0.81300
O30         O  0.91506635  0.40747497  0.10541569    -0.66000
O31         O  0.86217293  0.36921879  0.07345101    -1.12600
C32         C  0.86276091  0.21789459  0.14706385     1.05500
O33         O  0.92286702  0.30923533  0.10777020    -0.79200
O34         O  0.89695679  0.21457286  0.10133139    -0.66800
Ni35       Ni  0.84164687  0.42998934  0.06960656     1.34900
C36         C  0.88587839  0.21182494  0.07879651     0.84300
O37         O  0.89329538  0.45149578  0.06065589    -0.79800
O38         O  0.86124085  0.48864883  0.05533951    -0.90100
C39         C  0.92818070  0.36465352  0.10475283     0.83900
O40         O  0.84451259  0.46128244  0.10739654    -0.68300
O41         O  0.88083359  0.23700514  0.15338761    -0.87500
C42         C  0.86066830  0.47705886  0.12111392     0.84700
C43         C  0.88059257  0.49085087  0.05079337     1.15000
H44         H  0.87681669  0.35386214  0.13487774     0.38100
O45         O  0.88116548  0.33263782  0.11776420    -1.10200
O46         O  0.87114718  0.24882563  0.07376922    -0.66900
Ni47       Ni  0.85677563  0.30362218  0.09905610     1.26300
O48         O  0.87843992  0.45709129  0.11472843    -0.67100
O49         O  0.85228524  0.23719957  0.12553198    -0.79400
C50         C  0.81701638  0.32042387  0.07619653     0.84100
O51         O  0.83159454  0.28195038  0.07922588    -0.66600
Ni52       Ni  0.90109628  0.27528808  0.13020657     1.27400
Ni53       Ni  0.88808250  0.39229477  0.08976720     1.26100
H54         H  0.86451325  0.35307187  0.05479557     0.38600
C55         C  0.92377896  0.86816030  0.44041796    -0.02900
C56         C  0.83470588  0.83070863  0.25739455    -0.02900
O57         O  0.31433787  0.14294523  0.17573608    -0.81300
O58         O  0.41072733  0.10970644  0.15844491    -0.66000
O59         O  0.35701994  0.14844578  0.18599462    -1.12600
C60         C  0.35975248  0.30371059  0.11362037     1.05500
O61         O  0.41854229  0.20804459  0.15805380    -0.79200
O62         O  0.39293804  0.30315453  0.16347469    -0.66800
Ni63       Ni  0.33617263  0.08796179  0.18791764     1.34900
C64         C  0.38109869  0.30466398  0.18469177     0.84300
O65         O  0.38755100  0.06427261  0.20076541    -0.79800
O66         O  0.35537632  0.02726211  0.20207987    -0.90100
C67         C  0.42401837  0.15242336  0.15951915     0.83900
O68         O  0.33942660  0.05980542  0.14971291    -0.68300
O69         O  0.37817950  0.28589590  0.10947840    -0.87500
C70         C  0.35588857  0.04216460  0.13794645     0.84700
C71         C  0.37457026  0.02385441  0.20834685     1.06200
H72         H  0.37344242  0.16590384  0.12606198     0.38100
O73         O  0.37723711  0.18621107  0.14367222    -1.10200
O74         O  0.36601683  0.26824002  0.18743336    -0.66900
Ni75       Ni  0.35243339  0.21474859  0.16014512     1.26300
O76         O  0.37362646  0.06137278  0.14596594    -0.67100
O77         O  0.34858576  0.28199067  0.13348079    -0.79400
C78         C  0.31215264  0.19999768  0.18038938     0.84100
O79         O  0.32711024  0.23687244  0.17762606    -0.66600
Ni80       Ni  0.39756149  0.24451174  0.13407695     1.27400
Ni81       Ni  0.38328162  0.12519819  0.17189099     1.26100
H82         H  0.35902706  0.16432902  0.20511785     0.38600
C83         C  0.42145470  0.64814765  0.32110289    -0.02900
C84         C  0.33174500  0.68858878  0.99905009    -0.02900
O85         O  0.18833089  0.88498898  0.42658242    -0.81300
O86         O  0.09156684  0.91906185  0.40545199    -0.66000
O87         O  0.14546661  0.88125025  0.43475505    -1.12600
C88         C  0.14304505  0.73021153  0.36032477     1.05500
O89         O  0.08423708  0.82023901  0.40344840    -0.79200
O90         O  0.11019925  0.72551249  0.40678189    -0.66800
Ni91       Ni  0.16659347  0.94064749  0.43841824     1.34900
C92         C  0.12122632  0.72295347  0.42933769     0.84300
O93         O  0.11511829  0.96572541  0.44818365    -0.79800
O94         O  0.14748018  0.00100463  0.45283062    -0.90100
C95         C  0.07868748  0.87526992  0.40744815     0.83900
O96         O  0.16350624  0.97051648  0.40031716    -0.68300
O97         O  0.12506122  0.75046239  0.35427371    -0.87500
C98         C  0.14734615  0.98707248  0.38671186     0.84700
C99         C  0.12820588  0.00434530  0.45792662     1.06200
H100        H  0.12961065  0.86539603  0.37395743     0.38100
O101        O  0.12545186  0.84476282  0.39107490    -1.10200
O102        O  0.13572936  0.76079626  0.43451121    -0.66900
Ni103      Ni  0.14988337  0.81513265  0.40890818     1.26300
O104        O  0.12933763  0.96885960  0.39359326    -0.67100
O105        O  0.15362695  0.74854489  0.38203657    -0.79400
C106        C  0.19006921  0.82773092  0.43119237     0.84100
O107        O  0.17478800  0.79194735  0.42801553    -0.66600
Ni108      Ni  0.10528397  0.78761939  0.37906071     1.27400
Ni109      Ni  0.11937218  0.90518883  0.41928514     1.26100
H110        H  0.14326871  0.86513079  0.45358443     0.38600
C111        C  0.08210095  0.38380884  0.06758781    -0.02900
C112        C  0.17074740  0.34090724  0.24849250    -0.02900
C113        C  0.11687729  0.43329552  0.13226367    -0.11300
C114        C  0.11413698  0.38427181  0.15100516     0.05800
C115        C  0.09918031  0.34033862  0.14418006    -0.10100
C116        C  0.08840180  0.34270555  0.11811918    -0.11700
C117        C  0.09240292  0.38867291  0.09779392    -0.01500
C118        C  0.10580617  0.43637699  0.10638542    -0.10600
C119        C  0.12812828  0.37586721  0.17612631     0.05900
H120        H  0.09662656  0.30224626  0.15831116     0.07800
H121        H  0.07772810  0.30618696  0.11300150     0.11200
H122        H  0.10830371  0.47571014  0.09315387     0.11500
H123        H  0.12790997  0.46884250  0.13747017     0.07800
C124        C  0.14943741  0.37674255  0.17238442    -0.11300
C125        C  0.16294186  0.36461583  0.19511274    -0.10600
C126        C  0.15566819  0.35068563  0.22266405    -0.01500
C127        C  0.13418745  0.35456070  0.22661768    -0.11700
C128        C  0.12058214  0.36489713  0.20351798    -0.10100
H129        H  0.15570877  0.38594907  0.15159343     0.07800
H130        H  0.17918549  0.36782146  0.19084095     0.11500
H131        H  0.12790030  0.34845333  0.24763326     0.11200
H132        H  0.10417114  0.36516551  0.20710332     0.07800
C133        C  0.15115163  0.62326142  0.29743619    -0.11300
C134        C  0.16152060  0.57431292  0.31056003     0.05800
C135        C  0.16753550  0.58019592  0.33938092    -0.10100
C136        C  0.16269487  0.63275432  0.35497816    -0.11700
C137        C  0.15129212  0.68018058  0.34233019    -0.01500
C138        C  0.14585183  0.67528678  0.31325109    -0.10600
C139        C  0.16464027  0.51548924  0.29508460     0.05900
H140        H  0.17562161  0.54339224  0.35003503     0.07800
H141        H  0.16691051  0.63483096  0.37739136     0.11200
H142        H  0.13703462  0.71106115  0.30293878     0.11500
H143        H  0.14623891  0.61998270  0.27531822     0.07800
C144        C  0.15889622  0.46044249  0.30780546    -0.11300
C145        C  0.16088775  0.40488176  0.29336006    -0.10600
C146        C  0.16954679  0.40167398  0.26589029    -0.01500
C147        C  0.17499015  0.45769252  0.25311113    -0.11700
C148        C  0.17251721  0.51360817  0.26740843    -0.10100
H149        H  0.15212613  0.46056242  0.32874053     0.07800
H150        H  0.15489550  0.36504684  0.30380541     0.11500
H151        H  0.18103073  0.45816831  0.23176041     0.11200
H152        H  0.17686069  0.55541333  0.25687226     0.07800
C153        C  0.14693400  0.18982838  0.27829827    -0.11300
C154        C  0.15908580  0.18026194  0.30299196     0.05800
C155        C  0.17474897  0.22266602  0.30932157    -0.10100
C156        C  0.17806106  0.27302964  0.29177456    -0.11700
C157        C  0.16556340  0.28445022  0.26740579    -0.01500
C158        C  0.15028877  0.24045439  0.26056574    -0.10600
C159        C  0.15577623  0.12643578  0.32213973     0.05900
H160        H  0.18440946  0.21743896  0.32816595     0.07800
H161        H  0.19041151  0.30418423  0.29748080     0.11200
H162        H  0.14119019  0.24341483  0.24118336     0.11500
H163        H  0.13511792  0.15721951  0.27224777     0.07800
C164        C  0.13587495  0.10569971  0.32872133    -0.11300
C165        C  0.13299201  0.05889890  0.34879152    -0.10600
C166        C  0.14994565  0.03142136  0.36273393    -0.01500
C167        C  0.16981766  0.05030498  0.35501804    -0.11700
C168        C  0.17267129  0.09687901  0.33512015    -0.10100
H169        H  0.12247458  0.12729361  0.31920909     0.07800
H170        H  0.11746786  0.04566610  0.35406003     0.11500
H171        H  0.18332861  0.03008404  0.36491306     0.11200
H172        H  0.18823583  0.11024274  0.33013933     0.07800
C173        C  0.12351256  0.61497976  0.99203505    -0.11300
C174        C  0.10589621  0.57850475  0.98737004     0.05800
C175        C  0.09484682  0.58774897  0.46338417    -0.10100
C176        C  0.09973594  0.63440494  0.44452665    -0.11700
C177        C  0.11660732  0.67332744  0.44990622    -0.01500
C178        C  0.12865702  0.66357675  0.47466646    -0.10600
C179        C  0.09993559  0.52984352  0.00796107     0.05900
H180        H  0.08183578  0.55864300  0.45822348     0.07800
H181        H  0.09012752  0.63995901  0.42564347     0.11200
H182        H  0.14180989  0.69242714  0.47942206     0.11500
H183        H  0.13322615  0.60802602  0.01069972     0.07800
C184        C  0.11476515  0.49262596  0.02133673    -0.11300
C185        C  0.10890873  0.44660332  0.04028014    -0.10600
C186        C  0.08806123  0.43717244  0.04729954    -0.01500
C187        C  0.07327858  0.47337716  0.03270617    -0.11700
C188        C  0.07913035  0.51924961  0.01386735    -0.10100
H189        H  0.13091443  0.49816337  0.01670215     0.07800
H190        H  0.12077707  0.41806512  0.04966561     0.11500
H191        H  0.05697766  0.46594916  0.03484216     0.11200
H192        H  0.06719353  0.54653936  0.00385389     0.07800
C193        C  0.12862845  0.14314142  0.00625150    -0.11300
C194        C  0.10790892  0.16162990  0.00574019     0.05800
C195        C  0.09361043  0.12320046  0.49235137    -0.10100
C196        C  0.10000846  0.07191572  0.47684310    -0.11700
C197        C  0.12097801  0.05637022  0.47568702    -0.01500
C198        C  0.13493962  0.09151811  0.99113541    -0.10600
C199        C  0.10143258  0.21783473  0.02141862     0.05900
H200        H  0.07738319  0.13420757  0.49264549     0.07800
H201        H  0.08857491  0.04517062  0.46530415     0.11200
H202        H  0.15107924  0.07934673  0.99185898     0.11500
H203        H  0.14016044  0.16946964  0.01779338     0.07800
C204        C  0.11053714  0.23305893  0.04785796    -0.11300
C205        C  0.10488633  0.28599033  0.06247233    -0.10600
C206        C  0.08926226  0.32496481  0.05174078    -0.01500
C207        C  0.08080361  0.31056237  0.02456082    -0.11700
C208        C  0.08661940  0.25771960  0.00981468    -0.10100
H209        H  0.12210346  0.20381267  0.05746373     0.07800
H210        H  0.11320231  0.29589080  0.08203713     0.11500
H211        H  0.06934893  0.34013310  0.01489640     0.11200
H212        H  0.07952499  0.24534474  0.49043253     0.07800
C213        C  0.24791629  0.80685340  0.44225877    -0.11300
C214        C  0.24876334  0.75347992  0.45876805     0.05800
C215        C  0.23026689  0.72470929  0.46590023    -0.10100
C216        C  0.21132210  0.74818255  0.45633033    -0.11700
C217        C  0.21038377  0.80194833  0.44006386    -0.01500
C218        C  0.22892328  0.83133144  0.43333352    -0.10600
C219        C  0.26891735  0.72852474  0.46874107     0.05900
H220        H  0.23050528  0.68365006  0.47864841     0.07800
H221        H  0.19732605  0.72484959  0.46215913     0.11200
H222        H  0.22874299  0.87291748  0.42096680     0.11500
H223        H  0.26197834  0.83014647  0.43668269     0.07800
C224        C  0.28412123  0.71318886  0.44913352    -0.11300
C225        C  0.30374578  0.69467096  0.45845768    -0.10600
C226        C  0.30915766  0.69507314  0.98730572    -0.01500
C227        C  0.29303949  0.70540178  0.00669053    -0.11700
C228        C  0.27331430  0.72263284  0.99716224    -0.10100
H229        H  0.28082093  0.71593314  0.42647409     0.07800
H230        H  0.31457597  0.68184511  0.44234435     0.11500
H231        H  0.29616825  0.70430561  0.02942186     0.11200
H232        H  0.26175260  0.73379525  0.01268514     0.07800
C233        C  0.36165002  0.72533239  0.43067272    -0.11300
C234        C  0.37486225  0.67526408  0.42767505     0.05800
C235        C  0.37571911  0.63197525  0.44957492    -0.10100
C236        C  0.36258916  0.63632561  0.47299640    -0.11700
C237        C  0.34793404  0.68396262  0.47513334    -0.01500
C238        C  0.34896564  0.73066956  0.45447051    -0.10600
C239        C  0.38706522  0.66722941  0.40126525     0.05900
H240        H  0.38619279  0.59374440  0.44818180     0.07800
H241        H  0.36415496  0.60192797  0.48927757     0.11200
H242        H  0.33898426  0.77001003  0.45593154     0.11500
H243        H  0.36104250  0.76023954  0.41442065     0.07800
C244        C  0.37698552  0.66050488  0.37480983    -0.11300
C245        C  0.38818168  0.65309550  0.34977516    -0.10600
C246        C  0.40996406  0.65219383  0.35008809    -0.01500
C247        C  0.41995492  0.66099148  0.37689334    -0.11700
C248        C  0.40866178  0.66707483  0.40208935    -0.10100
H249        H  0.36033379  0.66073124  0.37352422     0.07800
H250        H  0.37973405  0.64833403  0.32980365     0.11500
H251        H  0.43646053  0.66492253  0.37877754     0.11200
H252        H  0.41681273  0.67342224  0.42220325     0.07800
C253        C  0.26873603  0.30717003  0.20194998    -0.11300
C254        C  0.25271434  0.26608463  0.20797159     0.05800
C255        C  0.25652253  0.20328313  0.20435267    -0.10100
C256        C  0.27554060  0.18232079  0.19479002    -0.11700
C257        C  0.29155101  0.22330984  0.18886547    -0.01500
C258        C  0.28790078  0.28606127  0.19261926    -0.10600
C259        C  0.23209571  0.28794307  0.21778890     0.05900
H260        H  0.24491896  0.16980054  0.20940796     0.07800
H261        H  0.27779653  0.13363210  0.19255442     0.11200
H262        H  0.29988515  0.31897820  0.18839832     0.11500
H263        H  0.26643781  0.35581701  0.20411785     0.07800
C264        C  0.23005075  0.34004918  0.23523663    -0.11300
C265        C  0.21068439  0.35854505  0.24510775    -0.10600
C266        C  0.19267101  0.32571712  0.23757911    -0.01500
C267        C  0.19498385  0.27351971  0.22018029    -0.11700
C268        C  0.21415644  0.25554855  0.21021599    -0.10100
H269        H  0.24350437  0.36569991  0.24202261     0.07800
H270        H  0.21012268  0.39746642  0.25924053     0.11500
H271        H  0.18164897  0.24655620  0.21404089     0.11200
H272        H  0.21480485  0.21607789  0.19635741     0.07800
C273        C  0.32874396  0.44174276  0.08802091    -0.11300
C274        C  0.33947203  0.45920515  0.06357454     0.05800
C275        C  0.35585431  0.42256273  0.05458425    -0.10100
C276        C  0.36193017  0.37108102  0.07025244    -0.11700
C277        C  0.35154789  0.35402833  0.09513756    -0.01500
C278        C  0.33454900  0.38935870  0.10342651    -0.10600
C279        C  0.33462486  0.51717975  0.04826991     0.05900
H280        H  0.36448839  0.43516988  0.03596074     0.07800
H281        H  0.37510539  0.34532577  0.06316242     0.11200
H282        H  0.32623804  0.37796015  0.12248933     0.11500
H283        H  0.31602392  0.46911341  0.09538890     0.07800
C284        C  0.33021113  0.51715200  0.01889161    -0.11300
C285        C  0.32811988  0.57216691  0.00391016    -0.10600
C286        C  0.33153181  0.62913808  0.01744688    -0.01500
C287        C  0.33391380  0.62849364  0.04753602    -0.11700
C288        C  0.33568886  0.57342126  0.06258135    -0.10100
H289        H  0.32874625  0.47439990  0.00740630     0.07800
H290        H  0.32499776  0.57024147  0.98118297     0.11500
H291        H  0.33446912  0.67011604  0.05985363     0.11200
H292        H  0.33855603  0.57481976  0.08537878     0.07800
C293        C  0.33272747  0.93022807  0.08455054    -0.11300
C294        C  0.35005141  0.89869241  0.07449248     0.05800
C295        C  0.36957932  0.91588601  0.08531702    -0.10100
C296        C  0.37163378  0.96352974  0.10531981    -0.11700
C297        C  0.35422668  0.99518432  0.11498950    -0.01500
C298        C  0.33478973  0.97782155  0.10424535    -0.10600
C299        C  0.34731091  0.84831846  0.05298351     0.05900
H300        H  0.38332212  0.89305834  0.07818609     0.07800
H301        H  0.38683108  0.97495171  0.11351771     0.11200
H302        H  0.32099275  0.00037681  0.11143501     0.11500
H303        H  0.31734494  0.91747965  0.07765172     0.07800
C304        C  0.36035133  0.79704790  0.05229326    -0.11300
C305        C  0.35607513  0.74789546  0.03373305    -0.10600
C306        C  0.33790629  0.74658422  0.01672356    -0.01500
C307        C  0.32645910  0.80133332  0.01519077    -0.11700
C308        C  0.33098844  0.85074549  0.03303114    -0.10100
H309        H  0.37346034  0.79371080  0.06670859     0.07800
H310        H  0.36629309  0.70893294  0.03400194     0.11500
H311        H  0.31384114  0.80692861  0.00015652     0.11200
H312        H  0.32147453  0.89104747  0.03117460     0.07800
C313        C  0.41214407  0.81599156  0.29853316    -0.11300
C314        C  0.40071849  0.81031148  0.27297639     0.05800
C315        C  0.39504444  0.75162795  0.26369845    -0.10100
C316        C  0.40114292  0.69990137  0.27898322    -0.11700
C317        C  0.41361311  0.70473038  0.30393178    -0.01500
C318        C  0.41812922  0.76419146  0.31401934    -0.10600
C319        C  0.39427895  0.86521057  0.25632732     0.05900
H320        H  0.38599779  0.74548884  0.24431175     0.07800
H321        H  0.39572144  0.65640520  0.27103277     0.11200
H322        H  0.42691227  0.77034621  0.33363668     0.11500
H323        H  0.41627131  0.86063220  0.30675173     0.07800
C324        C  0.37443390  0.86855831  0.24410549    -0.11300
C325        C  0.36821518  0.91986273  0.22862103    -0.10600
C326        C  0.38167524  0.96941364  0.22471968    -0.01500
C327        C  0.40164860  0.96585527  0.23659742    -0.11700
C328        C  0.40783623  0.91448107  0.25234625    -0.10100
H329        H  0.36352496  0.83181131  0.24690614     0.07800
H330        H  0.35275505  0.92055998  0.21966899     0.11500
H331        H  0.41244735  0.00292955  0.23390995     0.11200
H332        H  0.42332922  0.91297778  0.26115042     0.07800
C333        C  0.39105878  0.38267816  0.25613103    -0.11300
C334        C  0.39821884  0.44038756  0.24744454     0.05800
C335        C  0.39794710  0.45347140  0.21806121    -0.10100
C336        C  0.39193975  0.40959056  0.19802202    -0.11700
C337        C  0.38536261  0.35178674  0.20663850    -0.01500
C338        C  0.38448062  0.33901975  0.23589905    -0.10600
C339        C  0.40589298  0.48747110  0.26835328     0.05900
H340        H  0.40239087  0.49786671  0.21029454     0.07800
H341        H  0.39247524  0.42087916  0.17558698     0.11200
H342        H  0.37955397  0.29451670  0.24303918     0.11500
H343        H  0.39104910  0.37044782  0.27843712     0.07800
C344        C  0.39802439  0.49235238  0.29605451    -0.11300
C345        C  0.40369205  0.54120413  0.31403311    -0.10600
C346        C  0.41674699  0.58812656  0.30436998    -0.01500
C347        C  0.42598462  0.57945186  0.27762277    -0.11700
C348        C  0.42080151  0.53010798  0.26014090    -0.10100
H349        H  0.38689719  0.45976194  0.30362371     0.07800
H350        H  0.39728046  0.54233433  0.33509174     0.11500
H351        H  0.43668030  0.61278861  0.26955815     0.11200
H352        H  0.42825551  0.52645040  0.23976785     0.07800
C353        C  0.97784727  0.89739170  0.40749316    -0.11300
C354        C  0.99117155  0.89045435  0.43113046     0.05800
C355        C  0.98237356  0.87995770  0.45785580    -0.10100
C356        C  0.96093910  0.87473306  0.46060599    -0.11700
C357        C  0.94747710  0.87723683  0.43659967    -0.01500
C358        C  0.95645667  0.89171837  0.41017959    -0.10600
C359        C  0.01408789  0.89185741  0.42752162     0.05900
H360        H  0.99209280  0.87578321  0.47671039     0.07800
H361        H  0.95481565  0.86670693  0.48157998     0.11200
H362        H  0.94718610  0.89930182  0.39124304     0.11500
H363        H  0.98400724  0.90608760  0.38660326     0.07800
C364        C  0.02665877  0.84791631  0.44085739    -0.11300
C365        C  0.04771611  0.84445046  0.43497810    -0.10600
C366        C  0.05698157  0.88564519  0.41612156    -0.01500
C367        C  0.04474010  0.93171591  0.40394392    -0.11700
C368        C  0.02349119  0.93436102  0.40933262    -0.10100
H369        H  0.02003069  0.81429829  0.45484281     0.07800
H370        H  0.05675513  0.80846269  0.44476400     0.11500
H371        H  0.05138601  0.96381629  0.38922855     0.11200
H372        H  0.01432329  0.96919123  0.39890990     0.07800
C373        C  0.88244461  0.90181637  0.38134116    -0.11300
C374        C  0.88762778  0.85971945  0.36005427     0.05800
C375        C  0.90478320  0.82206818  0.36460711    -0.10100
C376        C  0.91630022  0.82591893  0.39008216    -0.11700
C377        C  0.91162859  0.86931504  0.41143084    -0.01500
C378        C  0.89412003  0.90645523  0.40658879    -0.10600
C379        C  0.87438169  0.85284954  0.33402590     0.05900
H380        H  0.90886065  0.78812918  0.34886356     0.07800
H381        H  0.92894360  0.79444807  0.39332806     0.11200
H382        H  0.88858832  0.93749865  0.42261110     0.11500
H383        H  0.86909801  0.93086382  0.37859661     0.07800
C384        C  0.85296718  0.84933187  0.33648877    -0.11300
C385        C  0.84026499  0.84263773  0.31237927    -0.10600
C386        C  0.84852722  0.83772143  0.28471757    -0.01500
C387        C  0.87006796  0.84473251  0.28240149    -0.11700
C388        C  0.88283292  0.85074290  0.30669534    -0.10100
H389        H  0.84596728  0.85158668  0.35724947     0.07800
H390        H  0.82389899  0.84272418  0.31588046     0.11500
H391        H  0.87706216  0.84436453  0.26162187     0.11200
H392        H  0.89929893  0.85476657  0.30410593     0.07800
C393        C  0.85576509  0.11060223  0.20920837    -0.11300
C394        C  0.84451775  0.06293114  0.19641232     0.05800
C395        C  0.83744579  0.06951839  0.16810781    -0.10100
C396        C  0.84209587  0.12214062  0.15260209    -0.11700
C397        C  0.85434707  0.16840945  0.16491632    -0.01500
C398        C  0.86083028  0.16248706  0.19353085    -0.10600
C399        C  0.84174629  0.00454581  0.21174383     0.05900
H400        H  0.82875630  0.03322151  0.15780641     0.07800
H401        H  0.83712458  0.12504209  0.13050369     0.11200
H402        H  0.87038036  0.19724427  0.20353110     0.11500
H403        H  0.86152296  0.10631246  0.23090107     0.07800
C404        C  0.84883252  0.95023425  0.19965127    -0.11300
C405        C  0.84709328  0.89504016  0.21416172    -0.10600
C406        C  0.83729264  0.89167917  0.24086826    -0.01500
C407        C  0.83121132  0.94738087  0.25344933    -0.11700
C408        C  0.83327319  0.00290230  0.23902594    -0.10100
H409        H  0.85628408  0.95078272  0.17917486     0.07800
H410        H  0.85392064  0.85560472  0.20427831     0.11500
H411        H  0.82452870  0.94765290  0.27442958     0.11200
H412        H  0.82812612  0.04456960  0.24909243     0.07800
C413        C  0.87279380  0.60124731  0.17617793    -0.11300
C414        C  0.85288111  0.61971503  0.18375938     0.05800
C415        C  0.83593899  0.58740948  0.17250684    -0.10100
C416        C  0.83866338  0.53960409  0.15325072    -0.11700
C417        C  0.85844401  0.52256873  0.14453081    -0.01500
C418        C  0.87555709  0.55318200  0.15666701    -0.10600
C419        C  0.84934851  0.67376115  0.20236652     0.05900
H420        H  0.82043762  0.59968721  0.17837433     0.07800
H421        H  0.82511390  0.51689092  0.14464255     0.11200
H422        H  0.89100615  0.54143868  0.15036164     0.11500
H423        H  0.88614545  0.62540327  0.18450469     0.07800
C424        C  0.86041379  0.68236985  0.22802019    -0.11300
C425        C  0.85597779  0.73169605  0.24608982    -0.10600
C426        C  0.84075472  0.77513087  0.23850455    -0.01500
C427        C  0.82954217  0.76491773  0.21286031    -0.11700
C428        C  0.83392422  0.71580462  0.19501432    -0.10100
H429        H  0.87204177  0.64974500  0.23456627     0.07800
H430        H  0.86421593  0.73407594  0.26621011     0.11500
H431        H  0.81740397  0.79601146  0.20643297     0.11200
H432        H  0.82514842  0.71065043  0.17532782     0.07800
C433        C  0.88996814  0.12030935  0.00983494    -0.11300
C434        C  0.90078168  0.06888566  0.51814572     0.05800
C435        C  0.90738627  0.06587863  0.54677167    -0.10100
C436        C  0.90155957  0.11092780  0.06722336    -0.11700
C437        C  0.89055453  0.16260133  0.05803951    -0.01500
C438        C  0.88469597  0.16669551  0.02913414    -0.10600
C439        C  0.90596636  0.01839344  0.49805101     0.05900
H440        H  0.91659726  0.02790272  0.55427954     0.07800
H441        H  0.90626081  0.10609491  0.08935195     0.11200
H442        H  0.87629227  0.20606174  0.02139027     0.11500
H443        H  0.88520153  0.12459055  0.98771985     0.07800
C444        C  0.90504119  0.95758977  0.50712938    -0.11300
C445        C  0.91069560  0.90976336  0.48915129    -0.10600
C446        C  0.91711026  0.92057872  0.46091977    -0.01500
C447        C  0.91869024  0.98215050  0.45233542    -0.11700
C448        C  0.91280418  0.03016115  0.47035852    -0.10100
H449        H  0.90115234  0.94606793  0.02930821     0.07800
H450        H  0.91039343  0.86451100  0.49809881     0.11500
H451        H  0.92423659  0.99295117  0.43131742     0.11200
H452        H  0.91411817  0.07662035  0.46288286     0.07800
C453        C  0.91139254  0.58631534  0.99871001    -0.11300
C454        C  0.90008296  0.64168105  0.49901709     0.05800
C455        C  0.88315713  0.64663956  0.51722120    -0.10100
C456        C  0.87707403  0.59763531  0.53399400    -0.11700
C457        C  0.88821288  0.54275308  0.03365638    -0.01500
C458        C  0.90533580  0.53729735  0.01593412    -0.10600
C459        C  0.90627648  0.69498469  0.48112065     0.05900
H460        H  0.87464288  0.68881140  0.51894322     0.07800
H461        H  0.86388055  0.60329882  0.54754837     0.11200
H462        H  0.91367621  0.49465919  0.01481131     0.11500
H463        H  0.92420877  0.57973805  0.98462686     0.07800
C464        C  0.92699200  0.70597640  0.47452088    -0.11300
C465        C  0.93284260  0.75922361  0.46024765    -0.10600
C466        C  0.91826194  0.80475389  0.45321515    -0.01500
C467        C  0.89734109  0.79085722  0.45789880    -0.11700
C468        C  0.89147757  0.73712378  0.47141169    -0.10100
H469        H  0.93936840  0.67336320  0.97953501     0.07800
H470        H  0.94889923  0.76426355  0.45533434     0.11500
H471        H  0.88543796  0.82310165  0.45194803     0.11200
H472        H  0.87524735  0.72933897  0.47464840     0.07800
C473        C  0.02771566  0.43587930  0.08989204    -0.11300
C474        C  0.01537387  0.38464185  0.08371421     0.05800
C475        C  0.02513585  0.33143845  0.07396603    -0.10100
C476        C  0.04623795  0.33042035  0.06888289    -0.11700
C477        C  0.05856477  0.38276218  0.07334544    -0.01500
C478        C  0.04899975  0.43431436  0.08553877    -0.10600
C479        C  0.99254082  0.38544151  0.08769908     0.05900
H480        H  0.01653820  0.28969031  0.07058266     0.07800
H481        H  0.05273126  0.28757440  0.06210029     0.11200
H482        H  0.05801723  0.47458341  0.09062551     0.11500
H483        H  0.02097134  0.47770776  0.09765434     0.07800
C484        C  0.98333176  0.42094024  0.10918436    -0.11300
C485        C  0.96207569  0.41721853  0.11394737    -0.10600
C486        C  0.94978543  0.37708837  0.09770568    -0.01500
C487        C  0.95872498  0.34355647  0.07569476    -0.11700
C488        C  0.97970288  0.34842446  0.07041977    -0.10100
H489        H  0.99258231  0.44975883  0.12309518     0.07800
H490        H  0.95545219  0.44322182  0.13117617     0.11500
H491        H  0.94943425  0.31280108  0.06271020     0.11200
H492        H  0.98586016  0.32223038  0.05294566     0.07800
C493        C  0.77154885  0.22402901  0.04880287    -0.11300
C494        C  0.75620092  0.26862039  0.04414697     0.05800
C495        C  0.76119714  0.32962975  0.05073370    -0.10100
C496        C  0.78064719  0.34548962  0.06166485    -0.11700
C497        C  0.79601647  0.30117564  0.06612289    -0.01500
C498        C  0.79119759  0.24010453  0.05956073    -0.10600
C499        C  0.73509275  0.25220847  0.03267968     0.05900
H500        H  0.75021302  0.36583995  0.04693736     0.07800
H501        H  0.78372305  0.39313386  0.06615780     0.11200
H502        H  0.80262302  0.20474218  0.06263336     0.11500
H503        H  0.76835665  0.17644863  0.04442266     0.07800
C504        C  0.73220120  0.20295784  0.51356154    -0.11300
C505        C  0.71234589  0.18749153  0.50348791    -0.10600
C506        C  0.69487015  0.22089016  0.51198543    -0.01500
C507        C  0.69809973  0.27200326  0.02967589    -0.11700
C508        C  0.71771195  0.28611521  0.04060087    -0.10100
H509        H  0.74510307  0.17680276  0.50592843     0.07800
H510        H  0.71099453  0.15034843  0.48839190     0.11500
H511        H  0.68525118  0.29986367  0.03620996     0.11200
H512        H  0.71909997  0.32350272  0.05561499     0.07800
C513        C  0.52304575  0.14027812  0.19619660    -0.11300
C514        C  0.51284907  0.13155440  0.16991634     0.05800
C515        C  0.52473425  0.12880405  0.14517819    -0.10100
C516        C  0.54620159  0.13782998  0.14660512    -0.11700
C517        C  0.55640367  0.15061320  0.17287902    -0.01500
C518        C  0.54432839  0.14903585  0.19766992    -0.10600
C519        C  0.48984155  0.13157028  0.16851213     0.05900
H520        H  0.51734062  0.12164684  0.12458451     0.07800
H521        H  0.55456046  0.13469945  0.12697590     0.11200
H522        H  0.55143744  0.15625887  0.21844585     0.11500
H523        H  0.51443863  0.14140041  0.21575296     0.07800
C524        C  0.47841948  0.08939916  0.15185095    -0.11300
C525        C  0.45675208  0.09311200  0.15007525    -0.10600
C526        C  0.44628233  0.13998995  0.16435567    -0.01500
C527        C  0.45773620  0.18078113  0.18146597    -0.11700
C528        C  0.47911026  0.17640592  0.18366576    -0.10100
H529        H  0.48624930  0.05405741  0.14007384     0.07800
H530        H  0.44831287  0.06128994  0.13658920     0.11500
H531        H  0.45012377  0.21731787  0.19275539     0.11200
H532        H  0.48736256  0.20986180  0.19648953     0.07800
C533        C  0.62221907  0.18735993  0.04382276    -0.11300
C534        C  0.62977334  0.17939811  0.07183409     0.05800
C535        C  0.65118087  0.17853571  0.07620752    -0.10100
C536        C  0.66465502  0.18751456  0.05361930    -0.11700
C537        C  0.65735300  0.19884051  0.02548517    -0.01500
C538        C  0.63579527  0.19495745  0.02095139    -0.10600
C539        C  0.61573462  0.17081983  0.09660465     0.05900
H540        H  0.65761331  0.17135877  0.09736803     0.07800
H541        H  0.68089555  0.18415615  0.05857196     0.11200
H542        H  0.62939915  0.19935115  0.99960705     0.11500
H543        H  0.60580380  0.18657836  0.03953081     0.07800
C544        C  0.59906286  0.21014095  0.10141372    -0.11300
C545        C  0.58735426  0.20525363  0.12631879    -0.10600
C546        C  0.59164707  0.16027272  0.14717356    -0.01500
C547        C  0.60834217  0.12059917  0.14172181    -0.11700
C548        C  0.61993229  0.12549790  0.11691539    -0.10100
H549        H  0.59558587  0.24629494  0.08644907     0.07800
H550        H  0.57515857  0.23792416  0.12976331     0.11500
H551        H  0.61344638  0.08703526  0.15698184     0.11200
H552        H  0.63265758  0.09440076  0.11394812     0.07800
C553        C  0.73475949  0.81239612  0.29693848    -0.11300
C554        C  0.74966760  0.76847726  0.28979366     0.05800
C555        C  0.74410133  0.70656162  0.29095041    -0.10100
C556        C  0.72449609  0.68889073  0.29939964    -0.11700
C557        C  0.70959105  0.73245677  0.30665200    -0.01500
C558        C  0.71492695  0.79459255  0.30519968    -0.10600
C559        C  0.77101726  0.78613532  0.28146456     0.05900
H560        H  0.75483722  0.67129519  0.28492595     0.07800
H561        H  0.72095962  0.64064681  0.29986579     0.11200
H562        H  0.70383400  0.82939911  0.31058894     0.11500
H563        H  0.73849346  0.86049125  0.29655761     0.07800
C564        C  0.77483445  0.83844084  0.26509063    -0.11300
C565        C  0.79490768  0.85344299  0.25686146    -0.10600
C566        C  0.81194213  0.81727100  0.26536678    -0.01500
C567        C  0.80773941  0.76381597  0.28092756    -0.11700
C568        C  0.78782753  0.74915662  0.28920339    -0.10100
H569        H  0.76222187  0.86707683  0.25797200     0.07800
H570        H  0.79672155  0.89270258  0.24334671     0.11500
H571        H  0.82018406  0.73378972  0.28734701     0.11200
H572        H  0.78570639  0.70882208  0.30203778     0.07800
C573        C  0.65356778  0.92742996  0.44803144    -0.11300
C574        C  0.66396446  0.97650264  0.43552419     0.05800
C575        C  0.66997621  0.97049743  0.40690848    -0.10100
C576        C  0.66510160  0.91767819  0.39100428    -0.11700
C577        C  0.65369790  0.87012086  0.40313744    -0.01500
C578        C  0.64831011  0.87536006  0.43199225    -0.10600
C579        C  0.66707486  0.03513555  0.45163231     0.05900
H580        H  0.67809188  0.00730504  0.39664749     0.07800
H581        H  0.66925373  0.91552652  0.36877013     0.11200
H582        H  0.63943138  0.83976128  0.44197106     0.11500
H583        H  0.64855982  0.93058362  0.46987773     0.07800
C584        C  0.66195288  0.09093916  0.43886206    -0.11300
C585        C  0.66328730  0.14581280  0.45422637    -0.10600
C586        C  0.67083004  0.14774772  0.48276431    -0.01500
C587        C  0.67571207  0.09108804  0.49550849    -0.11700
C588        C  0.67379416  0.03587281  0.48029252    -0.10100
H589        H  0.65606098  0.09194803  0.41714196     0.07800
H590        H  0.65778324  0.18611275  0.44344876     0.11500
H591        H  0.68102609  0.08962697  0.51748461     0.11200
H592        H  0.67765814  0.99361338  0.49095339     0.07800
C593        C  0.63554447  0.43716268  0.41755135    -0.11300
C594        C  0.65568543  0.41883399  0.42515380     0.05800
C595        C  0.67223858  0.44983820  0.41284326    -0.10100
C596        C  0.66887124  0.49628011  0.39298269    -0.11700
C597        C  0.64880882  0.51372628  0.38471049    -0.01500
C598        C  0.63214276  0.48399750  0.39754272    -0.10600
C599        C  0.65968176  0.36655011  0.44501568     0.05900
H600        H  0.68795058  0.43810734  0.41850569     0.07800
H601        H  0.68214970  0.51793139  0.38373040     0.11200
H602        H  0.61648770  0.49569406  0.39153731     0.11500
H603        H  0.62240475  0.41402303  0.42639117     0.07800
C604        C  0.64771899  0.35705558  0.46930976    -0.11300
C605        C  0.65172723  0.30786254  0.48776227    -0.10600
C606        C  0.66743612  0.26509273  0.48196484    -0.01500
C607        C  0.67996432  0.27723006  0.45828917    -0.11700
C608        C  0.67598492  0.32611188  0.44000461    -0.10100
H609        H  0.63548830  0.38851693  0.47442366     0.07800
H610        H  0.64259855  0.30475812  0.50667697     0.11500
H611        H  0.69263724  0.24715726  0.45338827     0.11200
H612        H  0.68557693  0.33150791  0.42155083     0.07800
C613        C  0.60085441  0.07165061  0.24246114    -0.11300
C614        C  0.59883114  0.01074984  0.23362430     0.05800
C615        C  0.59075268  0.99885979  0.20621616    -0.10100
C616        C  0.58480992  0.04702307  0.18819395    -0.11700
C617        C  0.58748452  0.10877109  0.19651249    -0.01500
C618        C  0.59511201  0.11957592  0.22452373    -0.10600
C619        C  0.60416446  0.96062803  0.25387178     0.05900
H620        H  0.58852571  0.95231952  0.19900946     0.07800
H621        H  0.57820226  0.03619480  0.16744536     0.11200
H622        H  0.59620955  0.16483932  0.23348487     0.11500
H623        H  0.60680301  0.08244035  0.26358474     0.07800
C624        C  0.59801185  0.96490446  0.28234397    -0.11300
C625        C  0.60342472  0.92002297  0.30207089    -0.10600
C626        C  0.61528118  0.86934510  0.29407342    -0.01500
C627        C  0.62145447  0.86459833  0.26551871    -0.11700
C628        C  0.61579332  0.90960118  0.24553977    -0.10100
H629        H  0.58883237  0.00309693  0.28940352     0.07800
H630        H  0.59836336  0.92539639  0.32380417     0.11500
H631        H  0.63048416  0.82598068  0.25860384     0.11200
H632        H  0.62082767  0.90517711  0.22375295     0.07800
C633        C  0.59146542  0.44338968  0.23869782    -0.11300
C634        C  0.60218192  0.38739647  0.23923714     0.05800
C635        C  0.61892938  0.38179492  0.25848238    -0.10100
C636        C  0.62533129  0.43085093  0.27562504    -0.11700
C637        C  0.61503301  0.48712338  0.27457866    -0.01500
C638        C  0.59774515  0.49252833  0.25629236    -0.10600
C639        C  0.59621774  0.33455438  0.22020136     0.05900
H640        H  0.62718935  0.33915502  0.26043374     0.07800
H641        H  0.63848250  0.42467341  0.28979826     0.11200
H642        H  0.58951211  0.53533876  0.25489358     0.11500
H643        H  0.57854683  0.44986513  0.22418469     0.07800
C644        C  0.57555203  0.32188798  0.21292637    -0.11300
C645        C  0.57011707  0.26880997  0.19757160    -0.10600
C646        C  0.58513912  0.22526651  0.18975782    -0.01500
C647        C  0.60592743  0.24152402  0.19483262    -0.11700
C648        C  0.61133079  0.29466649  0.20983971    -0.10100
H649        H  0.56341967  0.35195732  0.21986872     0.07800
H650        H  0.55401811  0.26216629  0.19250104     0.11500
H651        H  0.61810754  0.21112521  0.18831701     0.11200
H652        H  0.62749619  0.30388771  0.21372391     0.07800
C653        C  0.52491783  0.59757206  0.33563332    -0.11300
C654        C  0.51204783  0.64907284  0.33306591     0.05800
C655        C  0.52104820  0.70717277  0.33491200    -0.10100
C656        C  0.54218648  0.71408172  0.33867463    -0.11700
C657        C  0.55523153  0.66312349  0.34084023    -0.01500
C658        C  0.54636694  0.60454709  0.33937984    -0.10600
C659        C  0.48930566  0.64430423  0.32846517     0.05900
H660        H  0.51166140  0.74787617  0.33371438     0.07800
H661        H  0.54828328  0.76001541  0.33980147     0.11200
H662        H  0.55596901  0.56435608  0.34097913     0.11500
H663        H  0.51846532  0.55211181  0.33424502     0.07800
C664        C  0.47929341  0.68570195  0.31023937    -0.11300
C665        C  0.45789232  0.68794036  0.30823603    -0.10600
C666        C  0.44540575  0.64879987  0.32451173    -0.01500
C667        C  0.45565847  0.60351814  0.34081543    -0.11700
C668        C  0.47725952  0.60194102  0.34317267    -0.10100
H669        H  0.48809332  0.71689211  0.29738301     0.07800
H670        H  0.45142583  0.71953574  0.29296759     0.11500
H671        H  0.44682264  0.56986909  0.35219992     0.11200
H672        H  0.48447520  0.56863731  0.35705119     0.07800
O673        O  0.68584664  0.65507615  0.81806282    -0.81300
O674        O  0.59063034  0.62998407  0.84353464    -0.66000
O675        O  0.64319824  0.66387582  0.81163980    -1.12600
C676        C  0.64498158  0.82021393  0.88437384     1.05500
O677        O  0.58414228  0.72896008  0.84480413    -0.79200
O678        O  0.61025357  0.82214147  0.83821782    -0.66800
Ni679      Ni  0.66309626  0.60141196  0.80798493     1.34900
C680        C  0.62066746  0.82274923  0.81555035     0.84300
O681        O  0.61117904  0.58222857  0.79915672    -0.79800
O682        O  0.64268393  0.54161722  0.79564260    -0.90100
C683        C  0.57787429  0.67402148  0.84346198     0.83900
O684        O  0.66156280  0.57504830  0.84660625    -0.68300
O685        O  0.62708413  0.80131244  0.89081938    -0.87500
C686        C  0.64572276  0.55936814  0.86033100     0.84700
C687        C  0.62330682  0.54068166  0.79031473     1.06200
H688        H  0.63003005  0.68312893  0.87285692     0.38100
O689        O  0.62546480  0.70358123  0.85565066    -1.10200
O690        O  0.63501105  0.78458476  0.81095444    -0.66900
Ni691      Ni  0.64952718  0.73076214  0.83695840     1.26300
O692        O  0.62770706  0.57845829  0.85349910    -0.67100
O693        O  0.65490389  0.79917997  0.86301810    -0.79400
C694        C  0.68865347  0.71202900  0.81388742     0.84100
O695        O  0.67426210  0.75059449  0.81738733    -0.66600
Ni696      Ni  0.60628261  0.76289075  0.86744613     1.27400
Ni697      Ni  0.61751397  0.64268408  0.82799144     1.26100
H698        H  0.64047320  0.67939835  0.79275567     0.38600
C699        C  0.57998297  0.16086698  0.67622248    -0.02900
C700        C  0.67231801  0.20873608  0.99996362    -0.02900
O701        O  0.82010206  0.37610231  0.58281923    -0.81300
O702        O  0.91523506  0.40717747  0.60499517    -0.66000
O703        O  0.86224623  0.36877284  0.57360360    -1.12600
C704        C  0.86316382  0.21721067  0.64725106     1.05500
O705        O  0.92320497  0.30904149  0.60733767    -0.79200
O706        O  0.89732621  0.21435986  0.60079470    -0.66800
Ni707      Ni  0.84171453  0.42961779  0.57007744     1.34900
C708        C  0.88609050  0.21164459  0.57840776     0.84300
O709        O  0.89326030  0.45087639  0.56040715    -0.79800
O710        O  0.86120954  0.48837114  0.55578886    -0.90100
C711        C  0.92839717  0.36454354  0.60423042     0.83900
O712        O  0.84479516  0.46059650  0.60787527    -0.68300
O713        O  0.88137170  0.23584485  0.65314539    -0.87500
C714        C  0.86105745  0.47725955  0.62109195     0.84700
C715        C  0.88050216  0.49045145  0.55088740     1.15000
H716        H  0.87724065  0.35344743  0.63491614     0.38100
O717        O  0.88147413  0.33219567  0.61775281    -1.10200
O718        O  0.87120729  0.24833330  0.57375312    -0.66900
Ni719      Ni  0.85698263  0.30313671  0.59925392     1.26300
O720        O  0.87877703  0.45713452  0.61454166    -0.67100
O721        O  0.85254857  0.23673736  0.62587091    -0.79400
C722        C  0.81722059  0.32014529  0.57643492     0.84100
O723        O  0.83175630  0.28156332  0.57953967    -0.66600
Ni724      Ni  0.90150386  0.27466979  0.62985006     1.27400
Ni725      Ni  0.88822117  0.39185991  0.58963824     1.26100
H726        H  0.86447129  0.35268027  0.55490552     0.38600
C727        C  0.92434306  0.86926265  0.94080317    -0.02900
C728        C  0.83503719  0.83037958  0.75821244    -0.02900
O729        O  0.31427102  0.14163379  0.67632541    -0.81300
O730        O  0.41070003  0.11035139  0.65783125    -0.66000
O731        O  0.35708322  0.14839480  0.68601288    -1.12600
C732        C  0.35897794  0.30285502  0.61334827     1.05500
O733        O  0.41841668  0.20873775  0.65720001    -0.79200
O734        O  0.39251813  0.30328964  0.66313484    -0.66800
Ni735      Ni  0.33637996  0.08758206  0.68850342     1.34900
C736        C  0.38061794  0.30494431  0.68430145     0.84300
O737        O  0.38796530  0.06485309  0.70050919    -0.79800
O738        O  0.35584018  0.02779274  0.70268355    -0.90100
C739        C  0.42395804  0.15316131  0.65881546     0.83900
O740        O  0.33945299  0.05851155  0.65042357    -0.68300
O741        O  0.37748831  0.28583065  0.60922939    -0.87500
C742        C  0.35585920  0.04142183  0.63833339     0.84700
C743        C  0.37509866  0.02450881  0.70849377     1.06200
H744        H  0.37317054  0.16567536  0.62582151     0.38100
O745        O  0.37696803  0.18616809  0.64338494    -1.10200
O746        O  0.36555612  0.26846832  0.68703435    -0.66900
Ni747      Ni  0.35212144  0.21413215  0.66001039     1.26300
O748        O  0.37359801  0.06140371  0.64590536    -0.67100
O749        O  0.34789618  0.28079022  0.63319907    -0.79400
C750        C  0.31195671  0.19873121  0.68068657     0.84100
O751        O  0.32681853  0.23580990  0.67765635    -0.66600
Ni752      Ni  0.39711772  0.24486404  0.63358465     1.27400
Ni753      Ni  0.38332096  0.12550823  0.67161340     1.26100
H754        H  0.35920058  0.16463557  0.70504842     0.38600
C755        C  0.42156598  0.64819379  0.82082438    -0.02900
C756        C  0.33177136  0.68813566  0.49947655    -0.02900
O757        O  0.18811854  0.88459450  0.92595456    -0.81300
O758        O  0.09150046  0.91891429  0.90480351    -0.66000
O759        O  0.14526902  0.88074717  0.93433015    -1.12600
C760        C  0.14330465  0.73075707  0.85936770     1.05500
O761        O  0.08420005  0.82012898  0.90185784    -0.79200
O762        O  0.11004238  0.72537276  0.90548859    -0.66800
Ni763      Ni  0.16641151  0.94002698  0.93819708     1.34900
C764        C  0.12089889  0.72269079  0.92821168     0.84300
O765        O  0.11488401  0.96538884  0.94777577    -0.79800
O766        O  0.14730032  0.00007812  0.95290126    -0.90100
C767        C  0.07863826  0.87499898  0.90627214     0.83900
O768        O  0.16328734  0.97083400  0.90026825    -0.68300
O769        O  0.12537205  0.75109426  0.85314484    -0.87500
C770        C  0.14713359  0.98727685  0.88661833     0.84700
C771        C  0.12798295  0.00388670  0.95765422     1.06200
H772        H  0.12971286  0.86579638  0.87342107     0.38100
O773        O  0.12544528  0.84483587  0.89039748    -1.10200
O774        O  0.13544747  0.76029523  0.93357821    -0.66900
Ni775      Ni  0.14978903  0.81494503  0.90832873     1.26300
O776        O  0.12914855  0.96879014  0.89335106    -0.67100
O777        O  0.15370791  0.74870933  0.88130424    -0.79400
C778        C  0.18989808  0.82734845  0.93056846     0.84100
O779        O  0.17460730  0.79155634  0.92757264    -0.66600
Ni780      Ni  0.10541696  0.78784433  0.87778293     1.27400
Ni781      Ni  0.11921864  0.90487605  0.91879890     1.26100
H782        H  0.14302798  0.86439561  0.95310520     0.38600
C783        C  0.08213193  0.38329028  0.56781265    -0.02900
C784        C  0.17040578  0.34025706  0.74825235    -0.02900
C785        C  0.11605126  0.43381046  0.63301884    -0.11300
C786        C  0.11353986  0.38414859  0.65143712     0.05800
C787        C  0.09885161  0.33963657  0.64436580    -0.10100
C788        C  0.08817851  0.34199285  0.61825925    -0.11700
C789        C  0.09212387  0.38837013  0.59813661    -0.01500
C790        C  0.10512512  0.43675741  0.60705174    -0.10600
C791        C  0.12760741  0.37550519  0.67636257     0.05900
H792        H  0.09648103  0.30110051  0.65830035     0.07800
H793        H  0.07772208  0.30507833  0.61288755     0.11200
H794        H  0.10743040  0.47647252  0.59399083     0.11500
H795        H  0.12685107  0.46980643  0.63849583     0.07800
C796        C  0.14888928  0.37629931  0.67239356    -0.11300
C797        C  0.16248457  0.36394898  0.69496840    -0.10600
C798        C  0.15529807  0.34979596  0.72252063    -0.01500
C799        C  0.13383456  0.35338924  0.72666301    -0.11700
C800        C  0.12014945  0.36409542  0.70373755    -0.10100
H801        H  0.15505643  0.38569559  0.65155849     0.07800
H802        H  0.17871461  0.36720319  0.69060914     0.11500
H803        H  0.12763128  0.34690863  0.74770316     0.11200
H804        H  0.10375211  0.36428176  0.70743707     0.07800
C805        C  0.15190857  0.62479826  0.79622696    -0.11300
C806        C  0.16151356  0.57473517  0.80954837     0.05800
C807        C  0.16706777  0.57976520  0.83856913    -0.10100
C808        C  0.16241324  0.63242954  0.85418938    -0.11700
C809        C  0.15164493  0.68087979  0.84136114    -0.01500
C810        C  0.14677061  0.67698741  0.81206397    -0.10600
C811        C  0.16430388  0.51569837  0.79409137     0.05900
H812        H  0.17460307  0.54215890  0.84937295     0.07800
H813        H  0.16619608  0.63376772  0.87675191     0.11200
H814        H  0.13846993  0.71362729  0.80160465     0.11500
H815        H  0.14740697  0.62228260  0.77393066     0.07800
C816        C  0.15788740  0.46109086  0.80662601    -0.11300
C817        C  0.15989407  0.40525428  0.79241755    -0.10600
C818        C  0.16917768  0.40130956  0.76539134    -0.01500
C819        C  0.17509959  0.45692560  0.75263980    -0.11700
C820        C  0.17268806  0.51312920  0.76672173    -0.10100
H821        H  0.15066688  0.46178053  0.82725980     0.07800
H822        H  0.15345860  0.36575398  0.80264522     0.11500
H823        H  0.18153450  0.45683634  0.73151617     0.11200
H824        H  0.17752068  0.55457592  0.75629407     0.07800
C825        C  0.14692736  0.18862010  0.77775419    -0.11300
C826        C  0.15870992  0.18007320  0.80285313     0.05800
C827        C  0.17400924  0.22333943  0.80959187    -0.10100
C828        C  0.17733363  0.27363180  0.79202228    -0.11700
C829        C  0.16517826  0.28407068  0.76724863    -0.01500
C830        C  0.15028125  0.23920779  0.76001506    -0.10600
C831        C  0.15543391  0.12635076  0.82200269     0.05900
H832        H  0.18338123  0.21876234  0.82875092     0.07800
H833        H  0.18942497  0.30544129  0.79800538     0.11200
H834        H  0.14151385  0.24151147  0.74031589     0.11500
H835        H  0.13542324  0.15526948  0.77142351     0.07800
C836        C  0.13555116  0.10533020  0.82846255    -0.11300
C837        C  0.13270593  0.05869037  0.84861250    -0.10600
C838        C  0.14968988  0.03167554  0.86269816    -0.01500
C839        C  0.16954235  0.05087517  0.85510247    -0.11700
C840        C  0.17235423  0.09731813  0.83515486    -0.10100
H841        H  0.12214650  0.12658545  0.81878637     0.07800
H842        H  0.11719343  0.04517635  0.85379957     0.11500
H843        H  0.18306570  0.03099727  0.86512034     0.11200
H844        H  0.18790173  0.11104152  0.83027025     0.07800
C845        C  0.12373206  0.61646813  0.49365895    -0.11300
C846        C  0.10660188  0.57835611  0.48837304     0.05800
C847        C  0.09365956  0.58961066  0.96295627    -0.10100
C848        C  0.09863100  0.63619166  0.94404676    -0.11700
C849        C  0.11605616  0.67327937  0.94880874    -0.01500
C850        C  0.12850884  0.66193584  0.97302047    -0.10600
C851        C  0.10053681  0.52975486  0.50887346     0.05900
H852        H  0.08023464  0.56187042  0.95824595     0.07800
H853        H  0.08867106  0.64315558  0.92561998     0.11200
H854        H  0.14208218  0.68935663  0.97730387     0.11500
H855        H  0.13306902  0.61067997  0.51277515     0.07800
C856        C  0.11527920  0.49288834  0.52262552    -0.11300
C857        C  0.10924571  0.44643100  0.54123620    -0.10600
C858        C  0.08830327  0.43648112  0.54759508    -0.01500
C859        C  0.07364659  0.47241536  0.53264056    -0.11700
C860        C  0.07966823  0.51858454  0.51409981    -0.10100
H861        H  0.13148506  0.49902468  0.51851114     0.07800
H862        H  0.12104093  0.41814030  0.55096222     0.11500
H863        H  0.05732895  0.46457996  0.53430361     0.11200
H864        H  0.06781759  0.54562821  0.50373675     0.07800
C865        C  0.12885938  0.14308641  0.50679418    -0.11300
C866        C  0.10799697  0.15986096  0.50728174     0.05800
C867        C  0.09360093  0.12611538  0.99003692    -0.10100
C868        C  0.09992027  0.07406749  0.97498341    -0.11700
C869        C  0.12074297  0.05654934  0.97504182    -0.01500
C870        C  0.13525336  0.09225470  0.49118767    -0.10600
C871        C  0.10148123  0.21613134  0.52276610     0.05900
H872        H  0.07747429  0.13839546  0.98947937     0.07800
H873        H  0.08855878  0.04823204  0.96285815     0.11200
H874        H  0.15150314  0.08147231  0.49104287     0.11500
H875        H  0.14040867  0.17033478  0.51781881     0.07800
C876        C  0.11080169  0.23246693  0.54890674    -0.11300
C877        C  0.10517483  0.28590562  0.56313830    -0.10600
C878        C  0.08941160  0.32426141  0.55226181    -0.01500
C879        C  0.08088884  0.30894129  0.52524657    -0.11700
C880        C  0.08657587  0.25542429  0.51098115    -0.10100
H881        H  0.12253170  0.20377166  0.55850878     0.07800
H882        H  0.11361795  0.29676412  0.58249590     0.11500
H883        H  0.06939026  0.33812973  0.51542367     0.11200
H884        H  0.07969556  0.24857272  0.98909429     0.07800
C885        C  0.24780721  0.80440965  0.93972118    -0.11300
C886        C  0.24871221  0.75334398  0.95777647     0.05800
C887        C  0.23020241  0.72670562  0.96643912    -0.10100
C888        C  0.21121138  0.74999841  0.95696032    -0.11700
C889        C  0.21023922  0.80159980  0.93926152    -0.01500
C890        C  0.22877418  0.82885272  0.93089438    -0.10600
C891        C  0.26891607  0.72880983  0.96793656     0.05900
H892        H  0.23045420  0.68744629  0.98036690     0.07800
H893        H  0.19721154  0.72837768  0.96401356     0.11200
H894        H  0.22854467  0.86870940  0.91734297     0.11500
H895        H  0.26186077  0.82609654  0.93291172     0.07800
C896        C  0.28409723  0.71230886  0.94847710    -0.11300
C897        C  0.30370709  0.69390962  0.95797796    -0.10600
C898        C  0.30918083  0.69468844  0.48778910    -0.01500
C899        C  0.29303749  0.70385030  0.50726971    -0.11700
C900        C  0.27327750  0.72105160  0.49789473    -0.10100
H901        H  0.28078779  0.71395983  0.92579539     0.07800
H902        H  0.31452767  0.68017629  0.94200445     0.11500
H903        H  0.29616565  0.70184724  0.52998624     0.11200
H904        H  0.26166836  0.73126607  0.51348890     0.07800
C905        C  0.36150456  0.72589241  0.93014646    -0.11300
C906        C  0.37509021  0.67660078  0.92749391     0.05800
C907        C  0.37626243  0.63410110  0.94971753    -0.10100
C908        C  0.36304170  0.63824049  0.97305529    -0.11700
C909        C  0.34797709  0.68482011  0.97477904    -0.01500
C910        C  0.34873432  0.73106484  0.95386331    -0.10600
C911        C  0.38729035  0.66839033  0.90106943     0.05900
H912        H  0.38703769  0.59656412  0.94863077     0.07800
H913        H  0.36485558  0.60454372  0.98961533     0.11200
H914        H  0.33848161  0.76983008  0.95505370     0.11500
H915        H  0.36066079  0.76029211  0.91367428     0.07800
C916        C  0.37718566  0.66151644  0.87463588    -0.11300
C917        C  0.38834782  0.65380508  0.84958945    -0.10600
C918        C  0.41012772  0.65268299  0.84985025    -0.01500
C919        C  0.42015326  0.66171981  0.87661745    -0.11700
C920        C  0.40889190  0.66810786  0.90183700    -0.10100
H921        H  0.36053339  0.66181870  0.87337574     0.07800
H922        H  0.37987288  0.64894726  0.82964399     0.11500
H923        H  0.43666100  0.66562123  0.87845062     0.11200
H924        H  0.41707334  0.67459518  0.92191780     0.07800
C925        C  0.26877546  0.30546975  0.70348215    -0.11300
C926        C  0.25244049  0.26460873  0.70819229     0.05800
C927        C  0.25598186  0.20202887  0.70329668    -0.10100
C928        C  0.27502663  0.18114815  0.69376112    -0.11700
C929        C  0.29133042  0.22194817  0.68914093    -0.01500
C930        C  0.28794939  0.28441810  0.69418569    -0.10600
C931        C  0.23179787  0.28654953  0.71796643     0.05900
H932        H  0.24415721  0.16856000  0.70732833     0.07800
H933        H  0.27705433  0.13263827  0.69047696     0.11200
H934        H  0.30016742  0.31718192  0.69104434     0.11500
H935        H  0.26673642  0.35396949  0.70663544     0.07800
C936        C  0.22978546  0.33789168  0.73592716    -0.11300
C937        C  0.21039872  0.35667898  0.74559011    -0.10600
C938        C  0.19232735  0.32482226  0.73744028    -0.01500
C939        C  0.19460160  0.27315139  0.71969781    -0.11700
C940        C  0.21378699  0.25509851  0.70979774    -0.10100
H941        H  0.24326126  0.36274336  0.74327052     0.07800
H942        H  0.20985311  0.39494871  0.76011372     0.11500
H943        H  0.18122492  0.24677699  0.71316608     0.11200
H944        H  0.21437005  0.21630823  0.69552588     0.07800
C945        C  0.32810345  0.44134232  0.58831382    -0.11300
C946        C  0.33868558  0.45846605  0.56370142     0.05800
C947        C  0.35475937  0.42117509  0.55428351    -0.10100
C948        C  0.36075864  0.36942729  0.56976562    -0.11700
C949        C  0.35060384  0.35284637  0.59488959    -0.01500
C950        C  0.33382490  0.38867494  0.60354186    -0.10600
C951        C  0.33406390  0.51675026  0.54863572     0.05900
H952        H  0.36324902  0.43353128  0.53549385     0.07800
H953        H  0.37374348  0.34319099  0.56239491     0.11200
H954        H  0.32569823  0.37757137  0.62279726     0.11500
H955        H  0.31561033  0.46925391  0.59597571     0.07800
C956        C  0.32913680  0.51702534  0.51942206    -0.11300
C957        C  0.32738850  0.57212947  0.50448654    -0.10600
C958        C  0.33151659  0.62881267  0.51791720    -0.01500
C959        C  0.33448166  0.62801412  0.54792130    -0.11700
C960        C  0.33600949  0.57283710  0.56290445    -0.10100
H961        H  0.32703976  0.47439553  0.50800933     0.07800
H962        H  0.32387529  0.57042918  0.48185648     0.11500
H963        H  0.33567055  0.66951283  0.56024357     0.11200
H964        H  0.33935331  0.57396235  0.58559161     0.07800
C965        C  0.33265346  0.92610184  0.58660254    -0.11300
C966        C  0.35007200  0.89750886  0.57514963     0.05800
C967        C  0.36965563  0.91752227  0.58450829    -0.10100
C968        C  0.37166399  0.96532118  0.60443928    -0.11700
C969        C  0.35414215  0.99416250  0.61550559    -0.01500
C970        C  0.33464877  0.97376898  0.60625288    -0.10600
C971        C  0.34734765  0.84752046  0.55353061     0.05900
H972        H  0.38343683  0.89682693  0.57622062     0.07800
H973        H  0.38693264  0.97915446  0.61143348     0.11200
H974        H  0.32078232  0.99401260  0.61455271     0.11500
H975        H  0.31729342  0.91102937  0.58073054     0.07800
C976        C  0.36068414  0.79703338  0.55222791    -0.11300
C977        C  0.35637627  0.74798422  0.53360858    -0.10600
C978        C  0.33796585  0.74617862  0.51710176    -0.01500
C979        C  0.32621265  0.80042666  0.51614224    -0.11700
C980        C  0.33070277  0.84957283  0.53413045    -0.10100
H981        H  0.37403448  0.79425765  0.56624782     0.07800
H982        H  0.36677064  0.70943818  0.53345575     0.11500
H983        H  0.31335433  0.80585731  0.50150113     0.11200
H984        H  0.32090224  0.88938603  0.53288663     0.07800
C985        C  0.41289148  0.81612429  0.79808440    -0.11300
C986        C  0.40156776  0.81065241  0.77245665     0.05800
C987        C  0.39572646  0.75213103  0.76314588    -0.10100
C988        C  0.40153104  0.70026032  0.77853609    -0.11700
C989        C  0.41384432  0.70484531  0.80362842    -0.01500
C990        C  0.41855703  0.76421393  0.81369483    -0.10600
C991        C  0.39515780  0.86566700  0.75594479     0.05900
H992        H  0.38672804  0.74629051  0.74369406     0.07800
H993        H  0.39602542  0.65688233  0.77055375     0.11200
H994        H  0.42728235  0.77017254  0.83337365     0.11500
H995        H  0.41714305  0.86069084  0.80627666     0.07800
C996        C  0.37510851  0.86970469  0.74452650    -0.11300
C997        C  0.36879730  0.92114098  0.72927008    -0.10600
C998        C  0.38236927  0.97015306  0.72476530    -0.01500
C999        C  0.40256297  0.96594114  0.73584827    -0.11700
C1000       C  0.40884664  0.91438719  0.75142295    -0.10100
H1001       H  0.36411872  0.83336219  0.74779849     0.07800
H1002       H  0.35316389  0.92232001  0.72095396     0.11500
H1003       H  0.41344915  0.00258926  0.73266565     0.11200
H1004       H  0.42448360  0.91228932  0.75967790     0.07800
C1005       C  0.38969168  0.38367004  0.75586574    -0.11300
C1006       C  0.39758000  0.44064169  0.74728609     0.05800
C1007       C  0.39789879  0.45323689  0.71785495    -0.10100
C1008       C  0.39195987  0.40942857  0.69774282    -0.11700
C1009       C  0.38479569  0.35219815  0.70626632    -0.01500
C1010       C  0.38314253  0.34014558  0.73552474    -0.10600
C1011       C  0.40545892  0.48743971  0.76828359     0.05900
H1012       H  0.40278376  0.49717942  0.71006114     0.07800
H1013       H  0.39302060  0.42034673  0.67531551     0.11200
H1014       H  0.37765896  0.29619568  0.74262498     0.11500
H1015       H  0.38911003  0.37177822  0.77818015     0.07800
C1016       C  0.39766840  0.49265315  0.79603419    -0.11300
C1017       C  0.40354263  0.54143033  0.81397575    -0.10600
C1018       C  0.41670508  0.58803484  0.80422366    -0.01500
C1019       C  0.42590661  0.57884742  0.77749909    -0.11700
C1020       C  0.42057398  0.52950014  0.76010315    -0.10100
H1021       H  0.38645096  0.46044757  0.80368929     0.07800
H1022       H  0.39718384  0.54280770  0.83506363     0.11500
H1023       H  0.43670673  0.61178807  0.76936020     0.11200
H1024       H  0.42809737  0.52547231  0.73980152     0.07800
C1025       C  0.97798263  0.90306957  0.90774487    -0.11300
C1026       C  0.99145654  0.89286752  0.93090470     0.05800
C1027       C  0.98295406  0.87931163  0.95748534    -0.10100
C1028       C  0.96158102  0.87388339  0.96051406    -0.11700
C1029       C  0.94795297  0.87879418  0.93681524    -0.01500
C1030       C  0.95663902  0.89680904  0.91065838    -0.10600
C1031       C  0.01424397  0.89283857  0.92687615     0.05900
H1032       H  0.99288602  0.87258505  0.97596125     0.07800
H1033       H  0.95564788  0.86355759  0.98137392     0.11200
H1034       H  0.94714773  0.90668519  0.89215788     0.11500
H1035       H  0.98400285  0.91444991  0.88705407     0.07800
C1036       C  0.02613849  0.84412616  0.93728768    -0.11300
C1037       C  0.04708458  0.83991059  0.93113250    -0.10600
C1038       C  0.05691939  0.88490843  0.91489080    -0.01500
C1039       C  0.04533308  0.93531792  0.90559560    -0.11700
C1040       C  0.02412983  0.93881813  0.91120752    -0.10100
H1041       H  0.01903308  0.80780163  0.94922294     0.07800
H1042       H  0.05559353  0.80059694  0.93874741     0.11500
H1043       H  0.05244423  0.97053739  0.89298959     0.11200
H1044       H  0.01538267  0.97711038  0.90302274     0.07800
C1045       C  0.88276063  0.90217580  0.88205251    -0.11300
C1046       C  0.88827832  0.86108185  0.86048981     0.05800
C1047       C  0.90577811  0.82472468  0.86472475    -0.10100
C1048       C  0.91724258  0.82852494  0.89021982    -0.11700
C1049       C  0.91217980  0.87072667  0.91189026    -0.01500
C1050       C  0.89441703  0.90689044  0.90732482    -0.10600
C1051       C  0.87497637  0.85342296  0.83457659     0.05900
H1052       H  0.91014169  0.79164208  0.84874105     0.07800
H1053       H  0.93015499  0.79792272  0.89323019     0.11200
H1054       H  0.88870155  0.93704569  0.92359634     0.11500
H1055       H  0.86915233  0.93022223  0.87952123     0.07800
C1056       C  0.85365533  0.84731302  0.83729006    -0.11300
C1057       C  0.84087615  0.83992855  0.81329994    -0.10600
C1058       C  0.84897793  0.83695401  0.78547381    -0.01500
C1059       C  0.87042959  0.84587333  0.78296695    -0.11700
C1060       C  0.88327253  0.85269819  0.80714111    -0.10100
H1061       H  0.84678691  0.84818993  0.85815907     0.07800
H1062       H  0.82456226  0.83817889  0.81707134     0.11500
H1063       H  0.87728925  0.84679016  0.76210446     0.11200
H1064       H  0.89966198  0.85850027  0.80437922     0.07800
C1065       C  0.85684449  0.10947081  0.70960961    -0.11300
C1066       C  0.84435376  0.06365119  0.69757357     0.05800
C1067       C  0.83630030  0.07180570  0.66983975    -0.10100
C1068       C  0.84121332  0.12397787  0.65409912    -0.11700
C1069       C  0.85470683  0.16823752  0.66554335    -0.01500
C1070       C  0.86214383  0.16084957  0.69367923    -0.10600
C1071       C  0.84150808  0.00505950  0.71280462     0.05900
H1072       H  0.82665620  0.03694053  0.66009938     0.07800
H1073       H  0.83540583  0.12796448  0.63242047     0.11200
H1074       H  0.87261403  0.19399307  0.70308896     0.11500
H1075       H  0.86338489  0.10395822  0.73082409     0.07800
C1076       C  0.84788601  0.95063553  0.70007699    -0.11300
C1077       C  0.84640488  0.89525282  0.71450247    -0.10600
C1078       C  0.83747644  0.89169122  0.74180324    -0.01500
C1079       C  0.83195387  0.94742001  0.75489907    -0.11700
C1080       C  0.83387553  0.00320199  0.74058793    -0.10100
H1081       H  0.85466402  0.95123756  0.67914492     0.07800
H1082       H  0.85274635  0.85585282  0.70400140     0.11500
H1083       H  0.82585776  0.94752892  0.77623121     0.11200
H1084       H  0.82928885  0.04490318  0.75114285     0.07800
C1085       C  0.87337301  0.60416797  0.67483712    -0.11300
C1086       C  0.85348160  0.62208010  0.68285078     0.05800
C1087       C  0.83654817  0.58917147  0.67196455    -0.10100
C1088       C  0.83923597  0.54098405  0.65292056    -0.11700
C1089       C  0.85897445  0.52396395  0.64404117    -0.01500
C1090       C  0.87609931  0.55563297  0.65553417    -0.10600
C1091       C  0.84991304  0.67559763  0.70184291     0.05900
H1092       H  0.82106306  0.60095285  0.67810571     0.07800
H1093       H  0.82567026  0.51770327  0.64471752     0.11200
H1094       H  0.89151356  0.54413481  0.64898321     0.11500
H1095       H  0.88672713  0.62885763  0.68278926     0.07800
C1096       C  0.86146383  0.68465179  0.72707368    -0.11300
C1097       C  0.85690242  0.73303393  0.74566365    -0.10600
C1098       C  0.84105022  0.77517261  0.73901580    -0.01500
C1099       C  0.82936427  0.76445727  0.71381314    -0.11700
C1100       C  0.83386684  0.71630421  0.69546889    -0.10100
H1101       H  0.87359629  0.65305243  0.73290867     0.07800
H1102       H  0.86563517  0.73583366  0.76537168     0.11500
H1103       H  0.81679293  0.79460151  0.70804449     0.11200
H1104       H  0.82469369  0.71090281  0.67614394     0.07800
C1105       C  0.88915963  0.11979291  0.50928227    -0.11300
C1106       C  0.90099015  0.06855718  0.01912296     0.05800
C1107       C  0.90666967  0.06466359  0.04810492    -0.10100
C1108       C  0.90252283  0.11213172  0.56603552    -0.11700
C1109       C  0.89076211  0.16279750  0.55738272    -0.01500
C1110       C  0.88406277  0.16607954  0.52876343    -0.10600
C1111       C  0.90654590  0.01836165  0.99902464     0.05900
H1112       H  0.91542314  0.02616097  0.05604062     0.07800
H1113       H  0.90793901  0.10792197  0.58789096     0.11200
H1114       H  0.87508469  0.20465256  0.52138907     0.11500
H1115       H  0.88375472  0.12332539  0.48740259     0.07800
C1116       C  0.90604695  0.95743706  0.00803960    -0.11300
C1117       C  0.91183589  0.91003987  0.98992266    -0.10600
C1118       C  0.91777278  0.92129373  0.96153291    -0.01500
C1119       C  0.91902782  0.98294992  0.95301764    -0.11700
C1120       C  0.91315863  0.03057989  0.97124771    -0.10100
H1121       H  0.89998007  0.94677930  0.52839163     0.07800
H1122       H  0.91194015  0.86473185  0.99883276     0.11500
H1123       H  0.92429701  0.99412132  0.93190071     0.11200
H1124       H  0.91424062  0.07709931  0.96378791     0.07800
C1125       C  0.91108039  0.58620327  0.49882661    -0.11300
C1126       C  0.90071384  0.64234796  0.99929060     0.05800
C1127       C  0.88398816  0.64769699  0.01785208    -0.10100
C1128       C  0.87769883  0.59856137  0.03441371    -0.11700
C1129       C  0.88794464  0.54237152  0.53367366    -0.01500
C1130       C  0.90519900  0.53731809  0.51619620    -0.10600
C1131       C  0.90689832  0.69569143  0.98130385     0.05900
H1132       H  0.87575097  0.69025011  0.01999354     0.07800
H1133       H  0.86463913  0.60455556  0.04818360     0.11200
H1134       H  0.91379402  0.49509018  0.51538914     0.11500
H1135       H  0.92404121  0.57999551  0.48495868     0.07800
C1136       C  0.92750180  0.70575599  0.97372560    -0.11300
C1137       C  0.93332243  0.75916304  0.95946973    -0.10600
C1138       C  0.91884796  0.80559069  0.95337052    -0.01500
C1139       C  0.89798665  0.79239816  0.95877070    -0.11700
C1140       C  0.89214838  0.73874505  0.97235879    -0.10100
H1141       H  0.93890890  0.67440481  0.48110963     0.07800
H1142       H  0.94926287  0.76365238  0.95379144     0.11500
H1143       H  0.88613195  0.82527202  0.95344185     0.11200
H1144       H  0.87595901  0.73173440  0.97621193     0.07800
C1145       C  0.02774524  0.43635122  0.58937285    -0.11300
C1146       C  0.01534161  0.38546933  0.58288662     0.05800
C1147       C  0.02497404  0.33214071  0.57311885    -0.10100
C1148       C  0.04613155  0.33050888  0.56852946    -0.11700
C1149       C  0.05856135  0.38256592  0.57322938    -0.01500
C1150       C  0.04903971  0.43436651  0.58526824    -0.10600
C1151       C  0.99256232  0.38660801  0.58681725     0.05900
H1152       H  0.01620265  0.29080024  0.56942399     0.07800
H1153       H  0.05255823  0.28746378  0.56191620     0.11200
H1154       H  0.05812050  0.47442784  0.59050520     0.11500
H1155       H  0.02101658  0.47815758  0.59720872     0.07800
C1156       C  0.98358419  0.41953760  0.60930890    -0.11300
C1157       C  0.96238034  0.41539566  0.61424639    -0.10600
C1158       C  0.94992254  0.37753444  0.59707947    -0.01500
C1159       C  0.95862694  0.34677327  0.57402496    -0.11700
C1160       C  0.97959630  0.35196552  0.56867174    -0.10100
H1161       H  0.99301214  0.44640217  0.62385501     0.07800
H1162       H  0.95592338  0.43917808  0.63227473     0.11500
H1163       H  0.94918535  0.31779341  0.56036346     0.11200
H1164       H  0.98570133  0.32769791  0.55055977     0.07800
C1165       C  0.77209655  0.22442012  0.54767580    -0.11300
C1166       C  0.75657551  0.26878388  0.54372139     0.05800
C1167       C  0.76144208  0.32961279  0.55091099    -0.10100
C1168       C  0.78085218  0.34535957  0.56200240    -0.11700
C1169       C  0.79631924  0.30115767  0.56595350    -0.01500
C1170       C  0.79170854  0.24042767  0.55852390    -0.10600
C1171       C  0.73539912  0.25218381  0.53254938     0.05900
H1172       H  0.75038280  0.36580108  0.54757076     0.07800
H1173       H  0.78380020  0.39280493  0.56709937     0.11200
H1174       H  0.80325270  0.20522698  0.56107620     0.11500
H1175       H  0.76907160  0.17697634  0.54279198     0.07800
C1176       C  0.73203542  0.20354234  0.01335246    -0.11300
C1177       C  0.71225673  0.18860997  0.00276448    -0.10600
C1178       C  0.69470205  0.22169979  0.01125967    -0.01500
C1179       C  0.69838550  0.27175923  0.53000553    -0.11700
C1180       C  0.71805520  0.28614696  0.54059216    -0.10100
H1181       H  0.74501229  0.17751372  0.00585126     0.07800
H1182       H  0.71103332  0.15202386  0.98736214     0.11500
H1183       H  0.68558802  0.29988410  0.53648991     0.11200
H1184       H  0.71949016  0.32382453  0.55542918     0.07800
C1185       C  0.52296077  0.14002614  0.69647311    -0.11300
C1186       C  0.51277098  0.13011389  0.67026793     0.05800
C1187       C  0.52466247  0.12631748  0.64557471    -0.10100
C1188       C  0.54611185  0.13566535  0.64690810    -0.11700
C1189       C  0.55630602  0.14976596  0.67304230    -0.01500
C1190       C  0.54425189  0.14902059  0.69786263    -0.10600
C1191       C  0.48976382  0.13069968  0.66872854     0.05900
H1192       H  0.51727234  0.11825352  0.62505016     0.07800
H1193       H  0.55446995  0.13178810  0.62730280     0.11200
H1194       H  0.55137078  0.15717280  0.71855756     0.11500
H1195       H  0.51432947  0.14207639  0.71599425     0.07800
C1196       C  0.47823005  0.08750997  0.65280795    -0.11300
C1197       C  0.45658466  0.09205227  0.65066286    -0.10600
C1198       C  0.44625018  0.14079450  0.66376899    -0.01500
C1199       C  0.45782803  0.18268060  0.68013430    -0.11700
C1200       C  0.47916735  0.17743659  0.68276785    -0.10100
H1201       H  0.48596061  0.05072213  0.64188954     0.07800
H1202       H  0.44806790  0.05922307  0.63782174     0.11500
H1203       H  0.45034564  0.22058551  0.69058337     0.11200
H1204       H  0.48752212  0.21164304  0.69501353     0.07800
C1205       C  0.62213105  0.18711423  0.54387122    -0.11300
C1206       C  0.62948632  0.18055439  0.57204015     0.05800
C1207       C  0.65083742  0.18134525  0.57688172    -0.10100
C1208       C  0.66448316  0.18991117  0.55449858    -0.11700
C1209       C  0.65738909  0.19929203  0.52612318    -0.01500
C1210       C  0.63588463  0.19451294  0.52122093    -0.10600
C1211       C  0.61534028  0.17116668  0.59653243     0.05900
H1212       H  0.65708253  0.17541734  0.59823556     0.07800
H1213       H  0.68068252  0.18750655  0.55981914     0.11200
H1214       H  0.62968054  0.19776613  0.49972364     0.11500
H1215       H  0.60576196  0.18519641  0.53929409     0.07800
C1216       C  0.59853029  0.20992444  0.60130462    -0.11300
C1217       C  0.58684458  0.20453586  0.62618293    -0.10600
C1218       C  0.59137047  0.15974988  0.64704399    -0.01500
C1219       C  0.60816215  0.12050659  0.64154483    -0.11700
C1220       C  0.61967604  0.12576855  0.61672623    -0.10100
H1221       H  0.59495649  0.24607471  0.58637839     0.07800
H1222       H  0.57454118  0.23682792  0.62966831     0.11500
H1223       H  0.61345525  0.08719804  0.65680079     0.11200
H1224       H  0.63252149  0.09512166  0.61371872     0.07800
C1225       C  0.73522928  0.81224371  0.79800408    -0.11300
C1226       C  0.74979469  0.76847561  0.78951492     0.05800
C1227       C  0.74380151  0.70689419  0.78870759    -0.10100
C1228       C  0.72408175  0.68925926  0.79669284    -0.11700
C1229       C  0.70956977  0.73260873  0.80555270    -0.01500
C1230       C  0.71531172  0.79451974  0.80587498    -0.10600
C1231       C  0.77123043  0.78600746  0.78175038     0.05900
H1232       H  0.75433360  0.67201363  0.78160052     0.07800
H1233       H  0.72016657  0.64128387  0.79567719     0.11200
H1234       H  0.70451158  0.82912984  0.81250635     0.11500
H1235       H  0.73933518  0.86006009  0.79904764     0.07800
C1236       C  0.77523084  0.83903856  0.76604666    -0.11300
C1237       C  0.79535048  0.85397903  0.75811434    -0.10600
C1238       C  0.81227642  0.81703206  0.76628959    -0.01500
C1239       C  0.80790133  0.76295152  0.78132100    -0.11700
C1240       C  0.78789087  0.74823877  0.78923995    -0.10100
H1241       H  0.76270145  0.86826337  0.75917230     0.07800
H1242       H  0.79726431  0.89383442  0.74502112     0.11500
H1243       H  0.82025663  0.73235645  0.78746683     0.11200
H1244       H  0.78552570  0.70719403  0.80150034     0.07800
C1245       C  0.65350644  0.92979055  0.94646966    -0.11300
C1246       C  0.66370980  0.97879190  0.93362239     0.05800
C1247       C  0.66951237  0.97245318  0.90494029    -0.10100
C1248       C  0.66478707  0.91899340  0.88940116    -0.11700
C1249       C  0.65370620  0.87124751  0.90197371    -0.01500
C1250       C  0.64837738  0.87715836  0.93080561    -0.10600
C1251       C  0.66701089  0.03730581  0.94971587     0.05900
H1252       H  0.67741662  0.00931383  0.89440919     0.07800
H1253       H  0.66882281  0.91637849  0.86713286     0.11200
H1254       H  0.63968240  0.84155510  0.94108312     0.11500
H1255       H  0.64862275  0.93331695  0.96836195     0.07800
C1256       C  0.66130935  0.09320727  0.93751335    -0.11300
C1257       C  0.66264573  0.14767029  0.95324650    -0.10600
C1258       C  0.67070829  0.14901904  0.98155468    -0.01500
C1259       C  0.67616803  0.09222394  0.99367055    -0.11700
C1260       C  0.67436311  0.03751370  0.97807705    -0.10100
H1261       H  0.65495003  0.09451818  0.91604138     0.07800
H1262       H  0.65670490  0.18809278  0.94300492     0.11500
H1263       H  0.68189212  0.09025610  0.01544611     0.11200
H1264       H  0.67871624  0.99512360  0.98826361     0.07800
C1265       C  0.63517812  0.43963740  0.91757690    -0.11300
C1266       C  0.65527572  0.42108478  0.92528842     0.05800
C1267       C  0.67189355  0.45188419  0.91300419    -0.10100
C1268       C  0.66864529  0.49784081  0.89285314    -0.11700
C1269       C  0.64863597  0.51507869  0.88427313    -0.01500
C1270       C  0.63189548  0.48603426  0.89728656    -0.10600
C1271       C  0.65921022  0.36836565  0.94497027     0.05900
H1272       H  0.68757773  0.44013577  0.91881318     0.07800
H1273       H  0.68197298  0.51915975  0.88356997     0.11200
H1274       H  0.61626999  0.49779606  0.89115580     0.11500
H1275       H  0.62198622  0.41684172  0.92645985     0.07800
C1276       C  0.64730175  0.35835830  0.96928907    -0.11300
C1277       C  0.65139179  0.30880900  0.98755748    -0.10600
C1278       C  0.66711317  0.26620249  0.98152123    -0.01500
C1279       C  0.67950499  0.27870911  0.95775654    -0.11700
C1280       C  0.67545191  0.32788509  0.93968148    -0.10100
H1281       H  0.63507534  0.38969700  0.97457616     0.07800
H1282       H  0.64233631  0.30531898  0.00652467     0.11500
H1283       H  0.69214844  0.24870862  0.95262616     0.11200
H1284       H  0.68496437  0.33351945  0.92116349     0.07800
C1285       C  0.60091331  0.07268896  0.74269699    -0.11300
C1286       C  0.59941637  0.01180199  0.73375987     0.05800
C1287       C  0.59155875  0.99929649  0.70632157    -0.10100
C1288       C  0.58527680  0.04699414  0.68828923    -0.11700
C1289       C  0.58756091  0.10886666  0.69657658    -0.01500
C1290       C  0.59497262  0.12022861  0.72466235    -0.10600
C1291       C  0.60483424  0.96206655  0.75400329     0.05900
H1292       H  0.58973210  0.95258735  0.69914081     0.07800
H1293       H  0.57879253  0.03572685  0.66751882     0.11200
H1294       H  0.59568963  0.16559099  0.73359299     0.11500
H1295       H  0.60655450  0.08363262  0.76396391     0.07800
C1296       C  0.59707128  0.96359983  0.78170450    -0.11300
C1297       C  0.60229755  0.91846337  0.80139144    -0.10600
C1298       C  0.61560735  0.87051905  0.79407814    -0.01500
C1299       C  0.62350542  0.86893324  0.76632031    -0.11700
C1300       C  0.61801932  0.91406609  0.74637811    -0.10100
H1301       H  0.58676726  0.99974618  0.78810794     0.07800
H1302       H  0.59590593  0.92144193  0.82251066     0.11500
H1303       H  0.63377582  0.83268362  0.75997469     0.11200
H1304       H  0.62432920  0.91211136  0.72518553     0.07800
C1305       C  0.59156812  0.44415833  0.73737448    -0.11300
C1306       C  0.60232171  0.38821137  0.73791417     0.05800
C1307       C  0.61910205  0.38279111  0.75711639    -0.10100
C1308       C  0.62545871  0.43186608  0.77426248    -0.11700
C1309       C  0.61508068  0.48801619  0.77330815    -0.01500
C1310       C  0.59779890  0.49333129  0.75499906    -0.10600
C1311       C  0.59630848  0.33509910  0.71905657     0.05900
H1312       H  0.62740212  0.34023140  0.75910198     0.07800
H1313       H  0.63862387  0.42574524  0.78841622     0.11200
H1314       H  0.58951614  0.53606124  0.75363736     0.11500
H1315       H  0.57863276  0.45054633  0.72288333     0.07800
C1316       C  0.57563143  0.32257926  0.71173674    -0.11300
C1317       C  0.57012495  0.26903691  0.69678613    -0.10600
C1318       C  0.58508589  0.22503371  0.68938972    -0.01500
C1319       C  0.60589779  0.24109155  0.69442107    -0.11700
C1320       C  0.61137139  0.29462023  0.70904371    -0.10100
H1321       H  0.56353431  0.35308174  0.71838044     0.07800
H1322       H  0.55402877  0.26237747  0.69168044     0.11500
H1323       H  0.61803557  0.21028114  0.68816636     0.11200
H1324       H  0.62754943  0.30365038  0.71291546     0.07800
C1325       C  0.52503145  0.59808576  0.83497650    -0.11300
C1326       C  0.51216763  0.64951848  0.83215712     0.05800
C1327       C  0.52115752  0.70767073  0.83368205    -0.10100
C1328       C  0.54229067  0.71465862  0.83750915    -0.11700
C1329       C  0.55532169  0.66372699  0.83999498    -0.01500
C1330       C  0.54646577  0.60513291  0.83874680    -0.10600
C1331       C  0.48943011  0.64454596  0.82771307     0.05900
H1332       H  0.51176330  0.74832715  0.83222925     0.07800
H1333       H  0.54839532  0.76059987  0.83843459     0.11200
H1334       H  0.55606140  0.56497113  0.84058575     0.11500
H1335       H  0.51857806  0.55260282  0.83380774     0.07800
C1336       C  0.47935938  0.68519693  0.80920240    -0.11300
C1337       C  0.45795902  0.68728920  0.80732976    -0.10600
C1338       C  0.44553037  0.64879585  0.82405188    -0.01500
C1339       C  0.45584551  0.60410375  0.84061153    -0.11700
C1340       C  0.47745182  0.60271796  0.84285077    -0.10100
H1341       H  0.48811058  0.71590958  0.79603712     0.07800
H1342       H  0.45144124  0.71825942  0.79181724     0.11500
H1343       H  0.44706353  0.57084431  0.85231407     0.11200
H1344       H  0.48473038  0.56998755  0.85696642     0.07800
loop_ 
_geom_bond_atom_site_label_1 
_geom_bond_atom_site_label_2 
_geom_bond_distance 
_geom_bond_site_symmetry_2 
_ccdc_geom_bond_type 
O1           Ni7   1.941       .  S
O1           C22   1.279       .  A
O2          Ni25   1.926       .  S
O2           C11   1.274       .  A
O3           Ni7   1.894       .  S
O3          Ni25   1.908       .  S
O3          Ni19   1.924       .  S
O3           H26   0.964       .  S
C4           O21   1.286       .  A
C4           O13   1.276       .  A
C4          C577   1.495       .  S
O5          Ni24   1.922       .  S
O5           C11   1.273       .  A
O6          Ni24   1.915       .  S
O6            C8   1.271       .  A
Ni7          O10   1.946       .  S
Ni7          O12   1.906       .  S
C8           O18   1.274       .  A
C8          C626   1.491       .  S
O9          Ni25   1.928       .  S
O9           C15   1.278       .  A
O10          C15   1.281       .  A
C11         C657   1.490       .  S
O12          C14   1.271       .  A
O13         Ni24   1.919       .  S
C14          O20   1.281       .  A
C14         C597   1.497       .  S
C15         C637   1.494       .  S
H16          O17   0.968       .  S
O17         Ni25   1.922       .  S
O17         Ni19   1.903       .  S
O17         Ni24   1.891       .  S
O18         Ni19   1.939       .  S
Ni19         O23   1.916       .  S
Ni19         O21   1.961       .  S
O20         Ni25   1.963       .  S
C22          O23   1.274       .  A
C22         C557   1.492       .  S
C27         C517   1.563       .  S
C27         C546   1.570       .  S
C27         C617   1.567       .  S
C27         C646   1.569       .  S
C28         C506   1.564       .  S
C28         C586   1.568       .  S
C28         C606   1.565       .  S
C28        C1209   1.569       .  S
O29         Ni35   1.936       .  S
O29          C50   1.276       .  A
O30         Ni53   1.918       .  S
O30          C39   1.270       .  A
O31         Ni35   1.894       .  S
O31         Ni53   1.906       .  S
O31         Ni47   1.914       .  S
O31          H54   0.958       .  S
C32          O49   1.283       .  A
C32          O41   1.277       .  A
C32         C397   1.483       .  S
O33         Ni52   1.929       .  S
O33          C39   1.272       .  A
O34         Ni52   1.912       .  S
O34          C36   1.271       .  A
Ni35         O38   1.939       .  S
Ni35         O40   1.905       .  S
C36          O46   1.275       .  A
C36         C437   1.486       .  S
O37         Ni53   1.922       .  S
O37          C43   1.278       .  A
O38          C43   1.280       .  A
C39         C486   1.474       .  S
O40          C42   1.270       .  A
O41         Ni52   1.918       .  S
C42          O48   1.276       .  A
C42         C417   1.491       .  S
C43         C457   1.486       .  S
H44          O45   0.973       .  S
O45         Ni53   1.916       .  S
O45         Ni47   1.907       .  S
O45         Ni52   1.894       .  S
O46         Ni47   1.938       .  S
Ni47         O51   1.927       .  S
Ni47         O49   1.943       .  S
O48         Ni53   1.949       .  S
C50          O51   1.276       .  A
C50         C497   1.497       .  S
C55         C357   1.567       .  S
C55         C377   1.562       .  S
C55         C446   1.563       .  S
C55         C466   1.561       .  S
C56         C386   1.560       .  S
C56         C406   1.559       .  S
C56         C426   1.559       .  S
C56         C566   1.561       .  S
O57         Ni63   1.944       .  S
O57          C78   1.278       .  A
O58         Ni81   1.933       .  S
O58          C67   1.274       .  A
O59         Ni63   1.899       .  S
O59         Ni81   1.911       .  S
O59         Ni75   1.918       .  S
O59          H82   0.968       .  S
C60          O77   1.284       .  A
C60          O69   1.278       .  A
C60         C277   1.499       .  S
O61         Ni80   1.930       .  S
O61          C67   1.273       .  A
O62         Ni80   1.910       .  S
O62          C64   1.269       .  A
Ni63         O66   1.938       .  S
Ni63         O68   1.909       .  S
C64          O74   1.273       .  A
C64         C337   1.479       .  S
O65         Ni81   1.924       .  S
O65          C71   1.279       .  A
O66          C71   1.279       .  A
C67         C526   1.487       .  S
O68          C70   1.272       .  A
O69         Ni80   1.925       .  S
C70          O76   1.277       .  A
C70         C297   1.490   1_545  S
C71         C326   1.492   1_545  S
H72          O73   0.965       .  S
O73         Ni81   1.923       .  S
O73         Ni75   1.905       .  S
O73         Ni80   1.899       .  S
O74         Ni75   1.935       .  S
Ni75         O79   1.914       .  S
Ni75         O77   1.951       .  S
O76         Ni81   1.947       .  S
C78          O79   1.273       .  A
C78         C257   1.494       .  S
C83         C246   1.565       .  S
C83         C317   1.564       .  S
C83         C346   1.558       .  S
C83         C666   1.563       .  S
C84         C226   1.566       .  S
C84         C286   1.567   1_556  S
C84         C306   1.564   1_556  S
C84         C909   1.568       .  S
O85         Ni91   1.955       .  S
O85         C106   1.280       .  A
O86        Ni109   1.935       .  S
O86          C95   1.278       .  A
O87         Ni91   1.897       .  S
O87        Ni109   1.909       .  S
O87        Ni103   1.912       .  S
O87         H110   0.966       .  S
C88         O105   1.283       .  A
C88          O97   1.279       .  A
C88         C137   1.488       .  S
O89        Ni108   1.934       .  S
O89          C95   1.274       .  A
O90        Ni108   1.911       .  S
O90          C92   1.270       .  A
Ni91         O94   1.944   1_565  S
Ni91         O96   1.914       .  S
C92         O102   1.275       .  A
C92         C177   1.491       .  S
O93        Ni109   1.918       .  S
O93          C99   1.278   1_565  A
O94          C99   1.282       .  A
C95         C366   1.493       .  S
O96          C98   1.274       .  A
O97        Ni108   1.928       .  S
C98         O104   1.283       .  A
C98         C166   1.502   1_565  S
C99         C197   1.491       .  S
H100        O101   0.966       .  S
O101       Ni109   1.916       .  S
O101       Ni103   1.899       .  S
O101       Ni108   1.890       .  S
O102       Ni103   1.938       .  S
Ni103       O107   1.908       .  S
Ni103       O105   1.944       .  S
O104       Ni109   1.965       .  S
C106        O107   1.272       .  A
C106        C217   1.491       .  S
C111        C117   1.561       .  S
C111        C186   1.564       .  S
C111        C206   1.562       .  S
C111        C477   1.558       .  S
C112        C126   1.562       .  S
C112        C146   1.563       .  S
C112        C157   1.566       .  S
C112        C266   1.558       .  S
C113        C114   1.405       .  A
C113        C118   1.403       .  A
C113        H123   1.083       .  S
C114        C119   1.489       .  S
C114        C115   1.401       .  A
C115        C116   1.400       .  A
C115        H120   1.083       .  S
C116        C117   1.417       .  A
C116        H121   1.083       .  S
C117        C118   1.414       .  A
C118        H122   1.079       .  S
C119        C124   1.399       .  A
C119        C128   1.405       .  A
C124        C125   1.397       .  A
C124        H129   1.083       .  S
C125        C126   1.418       .  A
C125        H130   1.080       .  S
C126        C127   1.414       .  A
C127        C128   1.407       .  A
C127        H131   1.083       .  S
C128        H132   1.083       .  S
C133        C134   1.407       .  A
C133        C138   1.405       .  A
C133        H143   1.083       .  S
C134        C139   1.494       .  S
C134        C135   1.407       .  A
C135        C136   1.402       .  A
C135        H140   1.083       .  S
C136        C137   1.405       .  A
C136        H141   1.083       .  S
C137        C138   1.408       .  A
C138        H142   1.083       .  S
C139        C144   1.402       .  A
C139        C148   1.405       .  A
C144        C145   1.399       .  A
C144        H149   1.083       .  S
C145        C146   1.417       .  A
C145        H150   1.079       .  S
C146        C147   1.416       .  A
C147        C148   1.406       .  A
C147        H151   1.082       .  S
C148        H152   1.083       .  S
C153        C154   1.408       .  A
C153        C158   1.409       .  A
C153        H163   1.083       .  S
C154        C159   1.504       .  S
C154        C155   1.406       .  A
C155        C156   1.399       .  A
C155        H160   1.082       .  S
C156        C157   1.415       .  A
C156        H161   1.083       .  S
C157        C158   1.416       .  A
C158        H162   1.079       .  S
C159        C164   1.410       .  A
C159        C168   1.407       .  A
C164        C165   1.410       .  A
C164        H169   1.083       .  S
C165        C166   1.409       .  A
C165        H170   1.083       .  S
C166        C167   1.410       .  A
C167        C168   1.401       .  A
C167        H171   1.083       .  S
C168        H172   1.083       .  S
C173        C174   1.410       .  A
C173        C850   1.407       .  A
C173        H183   1.082   1_556  S
C174        C179   1.498   1_556  S
C174        C847   1.406       .  A
C175        C176   1.395       .  A
C175        C846   1.405       .  A
C175        H180   1.083       .  S
C176        C177   1.408       .  A
C176        H181   1.083       .  S
C177        C178   1.408       .  A
C178        C845   1.407       .  A
C178        H182   1.083       .  S
C179        C184   1.405       .  A
C179        C188   1.404       .  A
C184        C185   1.404       .  A
C184        H189   1.083       .  S
C185        C186   1.415       .  A
C185        H190   1.083       .  S
C186        C187   1.417       .  A
C187        C188   1.399       .  A
C187        H191   1.078       .  S
C188        H192   1.083       .  S
C193        C194   1.407       .  A
C193        C198   1.399   1_554  A
C193        H203   1.082       .  S
C194        C199   1.497       .  S
C194        C867   1.409   1_554  A
C195        C196   1.404       .  A
C195        C866   1.409       .  A
C195        H200   1.083       .  S
C196        C197   1.407       .  A
C196        H201   1.083       .  S
C197        C870   1.407       .  A
C198        C869   1.407       .  A
C198        H202   1.083       .  S
C199        C204   1.405       .  A
C199        C208   1.406       .  A
C204        C205   1.399       .  A
C204        H209   1.083       .  S
C205        C206   1.416       .  A
C205        H210   1.079       .  S
C206        C207   1.415       .  A
C207        C208   1.403       .  A
C207        H211   1.083       .  S
C208        H884   1.083   1_554  S
H212        C880   1.083       .  S
C213        C214   1.407       .  A
C213        C218   1.405       .  A
C213        H223   1.083       .  S
C214        C219   1.489       .  S
C214        C215   1.403       .  A
C215        C216   1.403       .  A
C215        H220   1.083       .  S
C216        C217   1.408       .  A
C216        H221   1.083       .  S
C217        C218   1.407       .  A
C218        H222   1.083       .  S
C219        C224   1.402       .  A
C219        C900   1.403       .  A
C224        C225   1.403       .  A
C224        H229   1.083       .  S
C225        C898   1.415       .  A
C225        H230   1.079       .  S
C226        C227   1.417   1_556  A
C226        C897   1.416       .  A
C227        C228   1.404   1_554  A
C227        H231   1.083       .  S
C228        C891   1.403       .  A
C228        H232   1.083   1_556  S
C233        C234   1.403       .  A
C233        C238   1.404       .  A
C233        H243   1.083       .  S
C234        C239   1.493       .  S
C234        C235   1.402       .  A
C235        C236   1.406       .  A
C235        H240   1.083       .  S
C236        C237   1.419       .  A
C236        H241   1.080       .  S
C237        C756   1.568       .  S
C237        C238   1.416       .  A
C238        H242   1.083       .  S
C239        C244   1.401       .  A
C239        C248   1.404       .  A
C244        C245   1.401       .  A
C244        H249   1.083       .  S
C245        C246   1.416       .  A
C245        H250   1.083       .  S
C246        C247   1.418       .  A
C247        C248   1.408       .  A
C247        H251   1.078       .  S
C248        H252   1.083       .  S
C253        C254   1.409       .  A
C253        C258   1.406       .  A
C253        H263   1.082       .  S
C254        C259   1.503       .  S
C254        C255   1.410       .  A
C255        C256   1.400       .  A
C255        H260   1.082       .  S
C256        C257   1.407       .  A
C256        H261   1.083       .  S
C257        C258   1.408       .  A
C258        H262   1.083       .  S
C259        C264   1.411       .  A
C259        C268   1.405       .  A
C264        C265   1.408       .  A
C264        H269   1.082       .  S
C265        C266   1.413       .  A
C265        H270   1.080       .  S
C266        C267   1.413       .  A
C267        C268   1.395       .  A
C267        H271   1.083       .  S
C268        H272   1.082       .  S
C273        C274   1.407       .  A
C273        C278   1.408       .  A
C273        H283   1.083       .  S
C274        C279   1.494       .  S
C274        C275   1.404       .  A
C275        C276   1.403       .  A
C275        H280   1.083       .  S
C276        C277   1.410       .  A
C276        H281   1.083       .  S
C277        C278   1.410       .  A
C278        H282   1.083       .  S
C279        C284   1.403       .  A
C279        C288   1.403       .  A
C284        C285   1.404       .  A
C284        H289   1.083       .  S
C285        C286   1.415       .  A
C285        H290   1.083   1_554  S
C286        C287   1.418       .  A
C287        C288   1.405       .  A
C287        H291   1.079       .  S
C288        H292   1.083       .  S
C293        C294   1.409       .  A
C293        C298   1.396       .  A
C293        H303   1.082       .  S
C294        C299   1.502       .  S
C294        C295   1.410       .  A
C295        C296   1.407       .  A
C295        H300   1.082       .  S
C296        C297   1.409       .  A
C296        H301   1.083       .  S
C297        C298   1.404       .  A
C298        H302   1.083   1_565  S
C299        C304   1.410       .  A
C299        C308   1.404       .  A
C304        C305   1.408       .  A
C304        H309   1.082       .  S
C305        C306   1.415       .  A
C305        H310   1.083       .  S
C306        C307   1.415       .  A
C307        C308   1.395       .  A
C307        H311   1.080       .  S
C308        H312   1.082       .  S
C313        C314   1.405       .  A
C313        C318   1.403       .  A
C313        H323   1.083       .  S
C314        C319   1.494       .  S
C314        C315   1.404       .  A
C315        C316   1.399       .  A
C315        H320   1.083       .  S
C316        C317   1.416       .  A
C316        H321   1.080       .  S
C317        C318   1.414       .  A
C318        H322   1.083       .  S
C319        C324   1.405       .  A
C319        C328   1.409       .  A
C324        C325   1.398       .  A
C324        H329   1.083       .  S
C325        C326   1.409       .  A
C325        H330   1.083       .  S
C326        C327   1.407       .  A
C327        C328   1.405       .  A
C327        H331   1.083   1_565  S
C328        H332   1.083       .  S
C333        C334   1.412       .  A
C333        C338   1.407       .  A
C333        H343   1.082       .  S
C334        C339   1.501       .  S
C334        C335   1.409       .  A
C335        C336   1.394       .  A
C335        H340   1.082       .  S
C336        C337   1.401       .  A
C336        H341   1.084       .  S
C337        C338   1.405       .  A
C338        H342   1.083       .  S
C339        C344   1.409       .  A
C339        C348   1.406       .  A
C344        C345   1.406       .  A
C344        H349   1.082       .  S
C345        C346   1.414       .  A
C345        H350   1.079       .  S
C346        C347   1.413       .  A
C347        C348   1.393       .  A
C347        H351   1.082       .  S
C348        H352   1.082       .  S
C353        C354   1.405       .  A
C353        C358   1.404       .  A
C353        H363   1.083       .  S
C354        C359   1.502   1_655  S
C354        C355   1.407       .  A
C355        C356   1.406       .  A
C355        H360   1.083       .  S
C356        C357   1.416       .  A
C356        H361   1.083       .  S
C357        C358   1.416       .  A
C358        H362   1.079       .  S
C359        C364   1.406       .  A
C359        C368   1.412       .  A
C364        C365   1.403       .  A
C364        H369   1.083       .  S
C365        C366   1.409       .  A
C365        H370   1.083       .  S
C366        C367   1.404       .  A
C367        C368   1.410       .  A
C367        H371   1.083       .  S
C368        H372   1.083       .  S
C373        C374   1.403       .  A
C373        C378   1.400       .  A
C373        H383   1.083       .  S
C374        C379   1.490       .  S
C374        C375   1.402       .  A
C375        C376   1.402       .  A
C375        H380   1.083       .  S
C376        C377   1.416       .  A
C376        H381   1.083       .  S
C377        C378   1.416       .  A
C378        H382   1.079       .  S
C379        C384   1.401       .  A
C379        C388   1.404       .  A
C384        C385   1.397       .  A
C384        H389   1.083       .  S
C385        C386   1.417       .  A
C385        H390   1.079       .  S
C386        C387   1.415       .  A
C387        C388   1.404       .  A
C387        H391   1.083       .  S
C388        H392   1.083       .  S
C393        C394   1.402       .  A
C393        C398   1.399       .  A
C393        H403   1.083       .  S
C394        C399   1.484       .  S
C394        C395   1.406       .  A
C395        C396   1.402       .  A
C395        H400   1.083       .  S
C396        C397   1.406       .  A
C396        H401   1.083       .  S
C397        C398   1.407       .  A
C398        H402   1.083       .  S
C399        C404   1.399   1_545  A
C399        C408   1.403       .  A
C404        C405   1.397       .  A
C404        H409   1.084       .  S
C405        C406   1.418       .  A
C405        H410   1.079       .  S
C406        C407   1.414       .  A
C407        C408   1.403   1_565  A
C407        H411   1.083       .  S
C408        H412   1.083       .  S
C413        C414   1.408       .  A
C413        C418   1.407       .  A
C413        H423   1.083       .  S
C414        C419   1.490       .  S
C414        C415   1.403       .  A
C415        C416   1.395       .  A
C415        H420   1.083       .  S
C416        C417   1.406       .  A
C416        H421   1.083       .  S
C417        C418   1.410       .  A
C418        H422   1.083       .  S
C419        C424   1.404       .  A
C419        C428   1.403       .  A
C424        C425   1.405       .  A
C424        H429   1.083       .  S
C425        C426   1.416       .  A
C425        H430   1.079       .  S
C426        C427   1.413       .  A
C427        C428   1.394       .  A
C427        H431   1.083       .  S
C428        H432   1.083       .  S
C433        C438   1.406       .  A
C433       C1106   1.410       .  A
C433        H443   1.083   1_554  S
C434        C439   1.494       .  S
C434        C435   1.405       .  A
C434       C1105   1.409       .  A
C435       C1108   1.396       .  A
C435        H440   1.083       .  S
C436        C437   1.406       .  A
C436       C1107   1.396       .  A
C436        H441   1.083       .  S
C437        C438   1.406       .  A
C438        H442   1.083       .  S
C439        C444   1.403   1_545  A
C439        C448   1.405       .  A
C444        C445   1.397       .  A
C444       H1121   1.083       .  S
C445        C446   1.416       .  A
C445        H450   1.079       .  S
C446        C447   1.415       .  A
C447        C448   1.405   1_565  A
C447        H451   1.083       .  S
C448        H452   1.083       .  S
H449       C1116   1.083       .  S
C453        C458   1.407   1_556  A
C453       C1126   1.412       .  A
C453        H463   1.082       .  S
C454        C459   1.501       .  S
C454        C455   1.408       .  A
C454       C1125   1.412       .  A
C455        C456   1.395       .  A
C455        H460   1.082       .  S
C456       C1129   1.404       .  A
C456        H461   1.083       .  S
C457        C458   1.406       .  A
C457       C1128   1.403       .  A
C458        H462   1.083       .  S
C459        C464   1.408       .  A
C459        C468   1.406       .  A
C464        C465   1.404       .  A
C464       H1141   1.082       .  S
C465        C466   1.414       .  A
C465        H470   1.078       .  S
C466        C467   1.414       .  A
C467        C468   1.396       .  A
C467        H471   1.083       .  S
C468        H472   1.082       .  S
H469       C1136   1.082       .  S
C473        C474   1.406       .  A
C473        C478   1.402       .  A
C473        H483   1.082       .  S
C474        C479   1.499   1_455  S
C474        C475   1.407       .  A
C475        C476   1.397       .  A
C475        H480   1.082       .  S
C476        C477   1.412       .  A
C476        H481   1.080       .  S
C477        C478   1.414       .  A
C478        H482   1.083       .  S
C479        C484   1.413       .  A
C479        C488   1.408       .  A
C484        C485   1.406       .  A
C484        H489   1.082       .  S
C485        C486   1.402       .  A
C485        H490   1.083       .  S
C486        C487   1.400       .  A
C487        C488   1.394       .  A
C487        H491   1.084       .  S
C488        H492   1.082       .  S
C493        C494   1.413       .  A
C493        C498   1.409       .  A
C493        H503   1.082       .  S
C494        C499   1.508       .  S
C494        C495   1.408       .  A
C495        C496   1.400       .  A
C495        H500   1.082       .  S
C496        C497   1.408       .  A
C496        H501   1.083       .  S
C497        C498   1.407       .  A
C498        H502   1.083       .  S
C499        C508   1.408       .  A
C499       C1176   1.410       .  A
C504        C505   1.408       .  A
C504       C1171   1.410       .  A
C504        H509   1.082       .  S
C505        C506   1.415       .  A
C505        H510   1.080       .  S
C506       C1179   1.413       .  A
C507        C508   1.400       .  A
C507       C1178   1.414       .  A
C507        H511   1.083       .  S
C508        H512   1.082       .  S
C513        C514   1.403       .  A
C513        C518   1.397       .  A
C513        H523   1.083       .  S
C514        C519   1.496       .  S
C514        C515   1.407       .  A
C515        C516   1.410       .  A
C515        H520   1.083       .  S
C516        C517   1.417       .  A
C516        H521   1.079       .  S
C517        C518   1.415       .  A
C518        H522   1.083       .  S
C519        C524   1.411       .  A
C519        C528   1.404       .  A
C524        C525   1.412       .  A
C524        H529   1.083       .  S
C525        C526   1.407       .  A
C525        H530   1.083       .  S
C526        C527   1.404       .  A
C527        C528   1.395       .  A
C527        H531   1.084       .  S
C528        H532   1.083       .  S
C533        C534   1.407       .  A
C533        C538   1.411       .  A
C533        H543   1.083       .  S
C534        C539   1.502       .  S
C534        C535   1.403       .  A
C535        C536   1.401       .  A
C535        H540   1.083       .  S
C536        C537   1.418       .  A
C536        H541   1.080       .  S
C537        C700   1.571   1_554  S
C537        C538   1.416       .  A
C538        H542   1.083   1_554  S
C539        C544   1.406       .  A
C539        C548   1.404       .  A
C544        C545   1.410       .  A
C544        H549   1.083       .  S
C545        C546   1.417       .  A
C545        H550   1.083       .  S
C546        C547   1.418       .  A
C547        C548   1.402       .  A
C547        H551   1.078       .  S
C548        H552   1.083       .  S
C553        C554   1.411       .  A
C553        C558   1.408       .  A
C553        H563   1.082       .  S
C554        C559   1.499       .  S
C554        C555   1.406       .  A
C555        C556   1.396       .  A
C555        H560   1.082       .  S
C556        C557   1.406       .  A
C556        H561   1.083       .  S
C557        C558   1.408       .  A
C558        H562   1.083       .  S
C559        C564   1.407       .  A
C559        C568   1.405       .  A
C564        C565   1.406       .  A
C564        H569   1.082       .  S
C565        C566   1.416       .  A
C565        H570   1.079       .  S
C566        C567   1.413       .  A
C567        C568   1.395       .  A
C567        H571   1.083       .  S
C568        H572   1.082       .  S
C573        C574   1.406       .  A
C573        C578   1.404       .  A
C573        H583   1.083       .  S
C574        C579   1.501   1_565  S
C574        C575   1.411       .  A
C575        C576   1.408       .  A
C575        H580   1.083   1_565  S
C576        C577   1.407       .  A
C576        H581   1.083       .  S
C577        C578   1.409       .  A
C578        H582   1.083       .  S
C579        C584   1.403       .  A
C579        C588   1.407       .  A
C584        C585   1.402       .  A
C584        H589   1.083       .  S
C585        C586   1.419       .  A
C585        H590   1.078       .  S
C586        C587   1.415       .  A
C587        C588   1.408       .  A
C587        H591   1.083       .  S
C588        H592   1.083   1_545  S
C593        C594   1.411       .  A
C593        C598   1.410       .  A
C593        H603   1.083       .  S
C594        C599   1.501       .  S
C594        C595   1.406       .  A
C595        C596   1.398       .  A
C595        H600   1.083       .  S
C596        C597   1.408       .  A
C596        H601   1.083       .  S
C597        C598   1.409       .  A
C598        H602   1.083       .  S
C599        C604   1.407       .  A
C599        C608   1.405       .  A
C604        C605   1.408       .  A
C604        H609   1.083       .  S
C605        C606   1.416       .  A
C605        H610   1.078       .  S
C606        C607   1.415       .  A
C607        C608   1.397       .  A
C607        H611   1.083       .  S
C608        H612   1.082       .  S
C613        C614   1.402       .  A
C613        C618   1.396       .  A
C613        H623   1.083       .  S
C614        C619   1.493   1_545  S
C614        C615   1.404   1_545  A
C615        C616   1.406   1_565  A
C615        H620   1.083       .  S
C616        C617   1.418       .  A
C616        H621   1.083       .  S
C617        C618   1.416       .  A
C618        H622   1.078       .  S
C619        C624   1.404       .  A
C619        C628   1.409       .  A
C624        C625   1.395       .  A
C624        H629   1.083   1_565  S
C625        C626   1.407       .  A
C625        H630   1.083       .  S
C626        C627   1.409       .  A
C627        C628   1.409       .  A
C627        H631   1.083       .  S
C628        H632   1.083       .  S
C633        C634   1.413       .  A
C633        C638   1.411       .  A
C633        H643   1.082       .  S
C634        C639   1.507       .  S
C634        C635   1.409       .  A
C635        C636   1.400       .  A
C635        H640   1.082       .  S
C636        C637   1.405       .  A
C636        H641   1.083       .  S
C637        C638   1.408       .  A
C638        H642   1.083       .  S
C639        C644   1.408       .  A
C639        C648   1.408       .  A
C644        C645   1.408       .  A
C644        H649   1.082       .  S
C645        C646   1.418       .  A
C645        H650   1.079       .  S
C646        C647   1.413       .  A
C647        C648   1.401       .  A
C647        H651   1.083       .  S
C648        H652   1.082       .  S
C653        C654   1.411       .  A
C653        C658   1.411       .  A
C653        H663   1.083       .  S
C654        C659   1.494       .  S
C654        C655   1.403       .  A
C655        C656   1.391       .  A
C655        H660   1.083       .  S
C656        C657   1.407       .  A
C656        H661   1.083       .  S
C657        C658   1.408       .  A
C658        H662   1.083       .  S
C659        C664   1.403       .  A
C659        C668   1.405       .  A
C664        C665   1.394       .  A
C664        H669   1.083       .  S
C665        C666   1.416       .  A
C665        H670   1.079       .  S
C666        C667   1.416       .  A
C667        C668   1.407       .  A
C667        H671   1.083       .  S
C668        H672   1.083       .  S
O673       Ni679   1.940       .  S
O673        C694   1.278       .  A
O674       Ni697   1.926       .  S
O674        C683   1.274       .  A
O675       Ni679   1.894       .  S
O675       Ni697   1.907       .  S
O675       Ni691   1.924       .  S
O675        H698   0.964       .  S
C676        O693   1.285       .  A
C676        O685   1.276       .  A
C676       C1249   1.494       .  S
O677       Ni696   1.922       .  S
O677        C683   1.273       .  A
O678       Ni696   1.914       .  S
O678        C680   1.271       .  A
Ni679       O682   1.944       .  S
Ni679       O684   1.909       .  S
C680        O690   1.274       .  A
C680       C1298   1.490       .  S
O681       Ni697   1.930       .  S
O681        C687   1.278       .  A
O682        C687   1.280       .  A
C683       C1329   1.489       .  S
O684        C686   1.272       .  A
O685       Ni696   1.919       .  S
C686        O692   1.280       .  A
C686       C1269   1.498       .  S
C687       C1309   1.495       .  S
H688        O689   0.968       .  S
O689       Ni697   1.923       .  S
O689       Ni691   1.903       .  S
O689       Ni696   1.891       .  S
O690       Ni691   1.936       .  S
Ni691       O695   1.916       .  S
Ni691       O693   1.959       .  S
O692       Ni697   1.961       .  S
C694        O695   1.274       .  A
C694       C1229   1.491       .  S
C699       C1189   1.563       .  S
C699       C1218   1.568       .  S
C699       C1289   1.565       .  S
C699       C1318   1.568       .  S
C700       C1178   1.566   1_556  S
C700       C1258   1.569       .  S
C700       C1278   1.566       .  S
O701       Ni707   1.934       .  S
O701        C722   1.275       .  A
O702       Ni725   1.916       .  S
O702        C711   1.269       .  A
O703       Ni707   1.894       .  S
O703       Ni725   1.904       .  S
O703       Ni719   1.914       .  S
O703        H726   0.958       .  S
C704        O721   1.283       .  A
C704        O713   1.277       .  A
C704       C1069   1.488       .  S
O705       Ni724   1.931       .  S
O705        C711   1.272       .  A
O706       Ni724   1.912       .  S
O706        C708   1.271       .  A
Ni707       O710   1.936       .  S
Ni707       O712   1.904       .  S
C708        O718   1.276       .  A
C708       C1109   1.489       .  S
O709       Ni725   1.922       .  S
O709        C715   1.278       .  A
O710        C715   1.280       .  A
C711       C1158   1.472       .  S
O712        C714   1.269       .  A
O713       Ni724   1.920       .  S
C714        O720   1.276       .  A
C714       C1089   1.491       .  S
C715       C1129   1.484       .  S
H716        O717   0.973       .  S
O717       Ni725   1.918       .  S
O717       Ni719   1.908       .  S
O717       Ni724   1.896       .  S
O718       Ni719   1.939       .  S
Ni719       O723   1.927       .  S
Ni719       O721   1.947       .  S
O720       Ni725   1.951       .  S
C722        O723   1.276       .  A
C722       C1169   1.495       .  S
C727       C1029   1.563       .  S
C727       C1049   1.559       .  S
C727       C1118   1.561       .  S
C727       C1138   1.561       .  S
C728       C1058   1.561       .  S
C728       C1078   1.561       .  S
C728       C1098   1.560       .  S
C728       C1238   1.561       .  S
O729       Ni735   1.944       .  S
O729        C750   1.278       .  A
O730       Ni753   1.933       .  S
O730        C739   1.274       .  A
O731       Ni735   1.899       .  S
O731       Ni753   1.912       .  S
O731       Ni747   1.917       .  S
O731        H754   0.968       .  S
C732        O749   1.283       .  A
C732        O741   1.278       .  A
C732        C949   1.497       .  S
O733       Ni752   1.931       .  S
O733        C739   1.274       .  A
O734       Ni752   1.912       .  S
O734        C736   1.270       .  A
Ni735       O738   1.935       .  S
Ni735       O740   1.909       .  S
C736        O746   1.272       .  A
C736       C1009   1.480       .  S
O737       Ni753   1.924       .  S
O737        C743   1.279       .  A
O738        C743   1.279       .  A
C739       C1198   1.489       .  S
O740        C742   1.273       .  A
O741       Ni752   1.924       .  S
C742        O748   1.277       .  A
C742        C969   1.490   1_545  S
C743        C998   1.491   1_545  S
H744        O745   0.966       .  S
O745       Ni753   1.921       .  S
O745       Ni747   1.907       .  S
O745       Ni752   1.899       .  S
O746       Ni747   1.934       .  S
Ni747       O751   1.914       .  S
Ni747       O749   1.949       .  S
O748       Ni753   1.947       .  S
C750        O751   1.272       .  A
C750        C929   1.494       .  S
C755        C918   1.566       .  S
C755        C989   1.563       .  S
C755       C1018   1.559       .  S
C755       C1338   1.563       .  S
C756        C898   1.566       .  S
C756        C958   1.566       .  S
C756        C978   1.564       .  S
O757       Ni763   1.956       .  S
O757        C778   1.280       .  A
O758       Ni781   1.933       .  S
O758        C767   1.278       .  A
O759       Ni763   1.897       .  S
O759       Ni781   1.909       .  S
O759       Ni775   1.912       .  S
O759        H782   0.966       .  S
C760        O777   1.283       .  A
C760        O769   1.278       .  A
C760        C809   1.488       .  S
O761       Ni780   1.931       .  S
O761        C767   1.274       .  A
O762       Ni780   1.913       .  S
O762        C764   1.270       .  A
Ni763       O766   1.944   1_565  S
Ni763       O768   1.914       .  S
C764        O774   1.275       .  A
C764        C849   1.492       .  S
O765       Ni781   1.921       .  S
O765        C771   1.279   1_565  A
O766        C771   1.282       .  A
C767       C1038   1.491       .  S
O768        C770   1.274       .  A
O769       Ni780   1.927       .  S
C770        O776   1.282       .  A
C770        C838   1.500   1_565  S
C771        C869   1.493       .  S
H772        O773   0.966       .  S
O773       Ni781   1.918       .  S
O773       Ni775   1.898       .  S
O773       Ni780   1.890       .  S
O774       Ni775   1.938       .  S
Ni775       O779   1.907       .  S
Ni775       O777   1.944       .  S
O776       Ni781   1.961       .  S
C778        O779   1.272       .  A
C778        C889   1.490       .  S
C783        C789   1.558       .  S
C783        C858   1.563       .  S
C783        C878   1.561       .  S
C783       C1149   1.558       .  S
C784        C798   1.558       .  S
C784        C818   1.562       .  S
C784        C829   1.564       .  S
C784        C938   1.558       .  S
C785        C786   1.404       .  A
C785        C790   1.402       .  A
C785        H795   1.083       .  S
C786        C791   1.485       .  S
C786        C787   1.400       .  A
C787        C788   1.399       .  A
C787        H792   1.083       .  S
C788        C789   1.417       .  A
C788        H793   1.083       .  S
C789        C790   1.414       .  A
C790        H794   1.079       .  S
C791        C796   1.399       .  A
C791        C800   1.404       .  A
C796        C797   1.396       .  A
C796        H801   1.083       .  S
C797        C798   1.418       .  A
C797        H802   1.080       .  S
C798        C799   1.414       .  A
C799        C800   1.405       .  A
C799        H803   1.083       .  S
C800        H804   1.083       .  S
C805        C806   1.407       .  A
C805        C810   1.406       .  A
C805        H815   1.083       .  S
C806        C811   1.494       .  S
C806        C807   1.407       .  A
C807        C808   1.402       .  A
C807        H812   1.083       .  S
C808        C809   1.405       .  A
C808        H813   1.083       .  S
C809        C810   1.408       .  A
C810        H814   1.083       .  S
C811        C816   1.403       .  A
C811        C820   1.405       .  A
C816        C817   1.399       .  A
C816        H821   1.083       .  S
C817        C818   1.416       .  A
C817        H822   1.079       .  S
C818        C819   1.417       .  A
C819        C820   1.406       .  A
C819        H823   1.082       .  S
C820        H824   1.083       .  S
C825        C826   1.407       .  A
C825        C830   1.409       .  A
C825        H835   1.083       .  S
C826        C831   1.502       .  S
C826        C827   1.405       .  A
C827        C828   1.399       .  A
C827        H832   1.083       .  S
C828        C829   1.414       .  A
C828        H833   1.083       .  S
C829        C830   1.416       .  A
C830        H834   1.079       .  S
C831        C836   1.410       .  A
C831        C840   1.406       .  A
C836        C837   1.410       .  A
C836        H841   1.083       .  S
C837        C838   1.410       .  A
C837        H842   1.083       .  S
C838        C839   1.409       .  A
C839        C840   1.400       .  A
C839        H843   1.083       .  S
C840        H844   1.083       .  S
C845        C846   1.410       .  A
C845        H855   1.083       .  S
C846        C851   1.496       .  S
C847        C848   1.397       .  A
C847        H852   1.083       .  S
C848        C849   1.408       .  A
C848        H853   1.083       .  S
C849        C850   1.407       .  A
C850        H854   1.083       .  S
C851        C856   1.405       .  A
C851        C860   1.404       .  A
C856        C857   1.404       .  A
C856        H861   1.083       .  S
C857        C858   1.416       .  A
C857        H862   1.083       .  S
C858        C859   1.416       .  A
C859        C860   1.398       .  A
C859        H863   1.079       .  S
C860        H864   1.083       .  S
C865        C866   1.406       .  A
C865        C870   1.399       .  A
C865        H875   1.083       .  S
C866        C871   1.495       .  S
C867        C868   1.405       .  A
C867        H872   1.083       .  S
C868        C869   1.407       .  A
C868        H873   1.083       .  S
C870        H874   1.083       .  S
C871        C876   1.404       .  A
C871        C880   1.405       .  A
C876        C877   1.399       .  A
C876        H881   1.083       .  S
C877        C878   1.416       .  A
C877        H882   1.079       .  S
C878        C879   1.414       .  A
C879        C880   1.402       .  A
C879        H883   1.083       .  S
C885        C886   1.408       .  A
C885        C890   1.406       .  A
C885        H895   1.083       .  S
C886        C891   1.491       .  S
C886        C887   1.404       .  A
C887        C888   1.403       .  A
C887        H892   1.083       .  S
C888        C889   1.407       .  A
C888        H893   1.083       .  S
C889        C890   1.407       .  A
C890        H894   1.083       .  S
C891        C896   1.403       .  A
C896        C897   1.404       .  A
C896        H901   1.083       .  S
C897        H902   1.079       .  S
C898        C899   1.417       .  A
C899        C900   1.403       .  A
C899        H903   1.083       .  S
C900        H904   1.083       .  S
C905        C906   1.403       .  A
C905        C910   1.404       .  A
C905        H915   1.083       .  S
C906        C911   1.494       .  S
C906        C907   1.403       .  A
C907        C908   1.406       .  A
C907        H912   1.083       .  S
C908        C909   1.419       .  A
C908        H913   1.080       .  S
C909        C910   1.416       .  A
C910        H914   1.083       .  S
C911        C916   1.401       .  A
C911        C920   1.404       .  A
C916        C917   1.402       .  A
C916        H921   1.083       .  S
C917        C918   1.416       .  A
C917        H922   1.083       .  S
C918        C919   1.418       .  A
C919        C920   1.409       .  A
C919        H923   1.078       .  S
C920        H924   1.083       .  S
C925        C926   1.410       .  A
C925        C930   1.405       .  A
C925        H935   1.082       .  S
C926        C931   1.504       .  S
C926        C927   1.410       .  A
C927        C928   1.400       .  A
C927        H932   1.082       .  S
C928        C929   1.407       .  A
C928        H933   1.083       .  S
C929        C930   1.408       .  A
C930        H934   1.083       .  S
C931        C936   1.411       .  A
C931        C940   1.405       .  A
C936        C937   1.408       .  A
C936        H941   1.082       .  S
C937        C938   1.413       .  A
C937        H942   1.080       .  S
C938        C939   1.413       .  A
C939        C940   1.395       .  A
C939        H943   1.083       .  S
C940        H944   1.082       .  S
C945        C946   1.406       .  A
C945        C950   1.408       .  A
C945        H955   1.083       .  S
C946        C951   1.492       .  S
C946        C947   1.404       .  A
C947        C948   1.402       .  A
C947        H952   1.083       .  S
C948        C949   1.410       .  A
C948        H953   1.083       .  S
C949        C950   1.409       .  A
C950        H954   1.083       .  S
C951        C956   1.403       .  A
C951        C960   1.403       .  A
C956        C957   1.403       .  A
C956        H961   1.083       .  S
C957        C958   1.415       .  A
C957        H962   1.083       .  S
C958        C959   1.418       .  A
C959        C960   1.405       .  A
C959        H963   1.078       .  S
C960        H964   1.083       .  S
C965        C966   1.408       .  A
C965        C970   1.396       .  A
C965        H975   1.082       .  S
C966        C971   1.499       .  S
C966        C967   1.409       .  A
C967        C968   1.407       .  A
C967        H972   1.082       .  S
C968        C969   1.409       .  A
C968        H973   1.083       .  S
C969        C970   1.405       .  A
C970        H974   1.083       .  S
C971        C976   1.409       .  A
C971        C980   1.403       .  A
C976        C977   1.408       .  A
C976        H981   1.082       .  S
C977        C978   1.415       .  A
C977        H982   1.083       .  S
C978        C979   1.415       .  A
C979        C980   1.394       .  A
C979        H983   1.080       .  S
C980        H984   1.083       .  S
C985        C986   1.404       .  A
C985        C990   1.402       .  A
C985        H995   1.083       .  S
C986        C991   1.492       .  S
C986        C987   1.404       .  A
C987        C988   1.399       .  A
C987        H992   1.083       .  S
C988        C989   1.416       .  A
C988        H993   1.080       .  S
C989        C990   1.415       .  A
C990        H994   1.083       .  S
C991        C996   1.404       .  A
C991       C1000   1.409       .  A
C996        C997   1.397       .  A
C996       H1001   1.083       .  S
C997        C998   1.409       .  A
C997       H1002   1.083       .  S
C998        C999   1.407       .  A
C999       C1000   1.406       .  A
C999       H1003   1.083   1_565  S
C1000      H1004   1.083       .  S
C1005      C1006   1.413       .  A
C1005      C1010   1.408       .  A
C1005      H1015   1.081       .  S
C1006      C1011   1.504       .  S
C1006      C1007   1.410       .  A
C1007      C1008   1.394       .  A
C1007      H1012   1.081       .  S
C1008      C1009   1.400       .  A
C1008      H1013   1.084       .  S
C1009      C1010   1.405       .  A
C1010      H1014   1.083       .  S
C1011      C1016   1.410       .  A
C1011      C1020   1.406       .  A
C1016      C1017   1.407       .  A
C1016      H1021   1.081       .  S
C1017      C1018   1.415       .  A
C1017      H1022   1.079       .  S
C1018      C1019   1.412       .  A
C1019      C1020   1.393       .  A
C1019      H1023   1.082       .  S
C1020      H1024   1.082       .  S
C1025      C1026   1.403       .  A
C1025      C1030   1.403       .  A
C1025      H1035   1.083       .  S
C1026      C1031   1.497   1_655  S
C1026      C1027   1.406       .  A
C1027      C1028   1.404       .  A
C1027      H1032   1.083       .  S
C1028      C1029   1.415       .  A
C1028      H1033   1.083       .  S
C1029      C1030   1.417       .  A
C1030      H1034   1.079       .  S
C1031      C1036   1.404       .  A
C1031      C1040   1.411       .  A
C1036      C1037   1.400       .  A
C1036      H1041   1.083       .  S
C1037      C1038   1.409       .  A
C1037      H1042   1.083       .  S
C1038      C1039   1.405       .  A
C1039      C1040   1.410       .  A
C1039      H1043   1.083       .  S
C1040      H1044   1.083       .  S
C1045      C1046   1.404       .  A
C1045      C1050   1.400       .  A
C1045      H1055   1.083       .  S
C1046      C1051   1.489       .  S
C1046      C1047   1.402       .  A
C1047      C1048   1.401       .  A
C1047      H1052   1.083       .  S
C1048      C1049   1.416       .  A
C1048      H1053   1.083       .  S
C1049      C1050   1.415       .  A
C1050      H1054   1.079       .  S
C1051      C1056   1.400       .  A
C1051      C1060   1.404       .  A
C1056      C1057   1.397       .  A
C1056      H1061   1.083       .  S
C1057      C1058   1.418       .  A
C1057      H1062   1.079       .  S
C1058      C1059   1.415       .  A
C1059      C1060   1.405       .  A
C1059      H1063   1.083       .  S
C1060      H1064   1.083       .  S
C1065      C1066   1.402       .  A
C1065      C1070   1.401       .  A
C1065      H1075   1.083       .  S
C1066      C1071   1.486       .  S
C1066      C1067   1.407       .  A
C1067      C1068   1.404       .  A
C1067      H1072   1.083       .  S
C1068      C1069   1.407       .  A
C1068      H1073   1.083       .  S
C1069      C1070   1.408       .  A
C1070      H1074   1.083       .  S
C1071      C1076   1.399   1_545  A
C1071      C1080   1.404       .  A
C1076      C1077   1.397       .  A
C1076      H1081   1.084       .  S
C1077      C1078   1.418       .  A
C1077      H1082   1.079       .  S
C1078      C1079   1.415       .  A
C1079      C1080   1.404   1_565  A
C1079      H1083   1.083       .  S
C1080      H1084   1.083       .  S
C1085      C1086   1.409       .  A
C1085      C1090   1.408       .  A
C1085      H1095   1.083       .  S
C1086      C1091   1.492       .  S
C1086      C1087   1.404       .  A
C1087      C1088   1.394       .  A
C1087      H1092   1.083       .  S
C1088      C1089   1.406       .  A
C1088      H1093   1.083       .  S
C1089      C1090   1.410       .  A
C1090      H1094   1.083       .  S
C1091      C1096   1.405       .  A
C1091      C1100   1.403       .  A
C1096      C1097   1.406       .  A
C1096      H1101   1.083       .  S
C1097      C1098   1.417       .  A
C1097      H1102   1.079       .  S
C1098      C1099   1.414       .  A
C1099      C1100   1.394       .  A
C1099      H1103   1.083       .  S
C1100      H1104   1.083       .  S
C1105      C1110   1.407       .  A
C1105      H1115   1.083       .  S
C1106      C1111   1.495   1_554  S
C1106      C1107   1.406       .  A
C1107      H1112   1.083       .  S
C1108      C1109   1.407       .  A
C1108      H1113   1.083       .  S
C1109      C1110   1.407       .  A
C1110      H1114   1.083       .  S
C1111      C1116   1.404   1_546  A
C1111      C1120   1.406       .  A
C1116      C1117   1.396   1_554  A
C1117      C1118   1.416       .  A
C1117      H1122   1.080       .  S
C1118      C1119   1.414       .  A
C1119      C1120   1.405   1_565  A
C1119      H1123   1.083       .  S
C1120      H1124   1.083       .  S
C1125      C1130   1.406       .  A
C1125      H1135   1.082       .  S
C1126      C1131   1.504       .  S
C1126      C1127   1.409   1_556  A
C1127      C1128   1.396       .  A
C1127      H1132   1.082       .  S
C1128      H1133   1.083       .  S
C1129      C1130   1.405       .  A
C1130      H1134   1.083       .  S
C1131      C1136   1.409       .  A
C1131      C1140   1.407       .  A
C1136      C1137   1.406       .  A
C1137      C1138   1.414       .  A
C1137      H1142   1.079       .  S
C1138      C1139   1.414       .  A
C1139      C1140   1.396       .  A
C1139      H1143   1.083       .  S
C1140      H1144   1.082       .  S
C1145      C1146   1.405       .  A
C1145      C1150   1.402       .  A
C1145      H1155   1.082       .  S
C1146      C1151   1.496   1_455  S
C1146      C1147   1.406       .  A
C1147      C1148   1.396       .  A
C1147      H1152   1.082       .  S
C1148      C1149   1.412       .  A
C1148      H1153   1.079       .  S
C1149      C1150   1.415       .  A
C1150      H1154   1.083       .  S
C1151      C1156   1.411       .  A
C1151      C1160   1.408       .  A
C1156      C1157   1.405       .  A
C1156      H1161   1.082       .  S
C1157      C1158   1.402       .  A
C1157      H1162   1.083       .  S
C1158      C1159   1.401       .  A
C1159      C1160   1.395       .  A
C1159      H1163   1.084       .  S
C1160      H1164   1.082       .  S
C1165      C1166   1.413       .  A
C1165      C1170   1.408       .  A
C1165      H1175   1.082       .  S
C1166      C1171   1.509       .  S
C1166      C1167   1.409       .  A
C1167      C1168   1.399       .  A
C1167      H1172   1.082       .  S
C1168      C1169   1.408       .  A
C1168      H1173   1.083       .  S
C1169      C1170   1.406       .  A
C1170      H1174   1.083       .  S
C1171      C1180   1.408       .  A
C1176      C1177   1.408       .  A
C1176      H1181   1.082       .  S
C1177      C1178   1.415       .  A
C1177      H1182   1.080   1_554  S
C1179      C1180   1.399       .  A
C1179      H1183   1.083       .  S
C1180      H1184   1.081       .  S
C1185      C1186   1.403       .  A
C1185      C1190   1.398       .  A
C1185      H1195   1.083       .  S
C1186      C1191   1.496       .  S
C1186      C1187   1.406       .  A
C1187      C1188   1.409       .  A
C1187      H1192   1.083       .  S
C1188      C1189   1.417       .  A
C1188      H1193   1.080       .  S
C1189      C1190   1.415       .  A
C1190      H1194   1.083       .  S
C1191      C1196   1.411       .  A
C1191      C1200   1.404       .  A
C1196      C1197   1.413       .  A
C1196      H1201   1.083       .  S
C1197      C1198   1.408       .  A
C1197      H1202   1.083       .  S
C1198      C1199   1.405       .  A
C1199      C1200   1.396       .  A
C1199      H1203   1.083       .  S
C1200      H1204   1.083       .  S
C1205      C1206   1.406       .  A
C1205      C1210   1.410       .  A
C1205      H1215   1.083       .  S
C1206      C1211   1.499       .  S
C1206      C1207   1.403       .  A
C1207      C1208   1.399       .  A
C1207      H1212   1.083       .  S
C1208      C1209   1.418       .  A
C1208      H1213   1.080       .  S
C1209      C1210   1.417       .  A
C1210      H1214   1.083       .  S
C1211      C1216   1.406       .  A
C1211      C1220   1.403       .  A
C1216      C1217   1.409       .  A
C1216      H1221   1.083       .  S
C1217      C1218   1.417       .  A
C1217      H1222   1.083       .  S
C1218      C1219   1.417       .  A
C1219      C1220   1.400       .  A
C1219      H1223   1.077       .  S
C1220      H1224   1.083       .  S
C1225      C1226   1.410       .  A
C1225      C1230   1.407       .  A
C1225      H1235   1.083       .  S
C1226      C1231   1.497       .  S
C1226      C1227   1.405       .  A
C1227      C1228   1.396       .  A
C1227      H1232   1.083       .  S
C1228      C1229   1.407       .  A
C1228      H1233   1.083       .  S
C1229      C1230   1.408       .  A
C1230      H1234   1.083       .  S
C1231      C1236   1.406       .  A
C1231      C1240   1.405       .  A
C1236      C1237   1.405       .  A
C1236      H1241   1.083       .  S
C1237      C1238   1.416       .  A
C1237      H1242   1.079       .  S
C1238      C1239   1.413       .  A
C1239      C1240   1.397       .  A
C1239      H1243   1.083       .  S
C1240      H1244   1.082       .  S
C1245      C1246   1.406       .  A
C1245      C1250   1.403       .  A
C1245      H1255   1.083       .  S
C1246      C1251   1.500   1_565  S
C1246      C1247   1.410       .  A
C1247      C1248   1.409       .  A
C1247      H1252   1.083   1_565  S
C1248      C1249   1.408       .  A
C1248      H1253   1.083       .  S
C1249      C1250   1.408       .  A
C1250      H1254   1.083       .  S
C1251      C1256   1.403       .  A
C1251      C1260   1.407       .  A
C1256      C1257   1.404       .  A
C1256      H1261   1.083       .  S
C1257      C1258   1.420       .  A
C1257      H1262   1.079       .  S
C1258      C1259   1.414       .  A
C1259      C1260   1.407       .  A
C1259      H1263   1.083   1_556  S
C1260      H1264   1.083   1_545  S
C1265      C1266   1.411       .  A
C1265      C1270   1.410       .  A
C1265      H1275   1.083       .  S
C1266      C1271   1.502       .  S
C1266      C1267   1.406       .  A
C1267      C1268   1.399       .  A
C1267      H1272   1.083       .  S
C1268      C1269   1.408       .  A
C1268      H1273   1.083       .  S
C1269      C1270   1.410       .  A
C1270      H1274   1.083       .  S
C1271      C1276   1.408       .  A
C1271      C1280   1.405       .  A
C1276      C1277   1.410       .  A
C1276      H1281   1.083       .  S
C1277      C1278   1.417       .  A
C1277      H1282   1.078   1_556  S
C1278      C1279   1.414       .  A
C1279      C1280   1.397       .  A
C1279      H1283   1.083       .  S
C1280      H1284   1.082       .  S
C1285      C1286   1.401       .  A
C1285      C1290   1.396       .  A
C1285      H1295   1.083       .  S
C1286      C1291   1.488   1_545  S
C1286      C1287   1.403   1_545  A
C1287      C1288   1.405   1_565  A
C1287      H1292   1.083       .  S
C1288      C1289   1.417       .  A
C1288      H1293   1.083       .  S
C1289      C1290   1.417       .  A
C1290      H1294   1.079       .  S
C1291      C1296   1.403       .  A
C1291      C1300   1.407       .  A
C1296      C1297   1.395       .  A
C1296      H1301   1.083       .  S
C1297      C1298   1.408       .  A
C1297      H1302   1.083       .  S
C1298      C1299   1.409       .  A
C1299      C1300   1.407       .  A
C1299      H1303   1.083       .  S
C1300      H1304   1.083       .  S
C1305      C1306   1.413       .  A
C1305      C1310   1.411       .  A
C1305      H1315   1.082       .  S
C1306      C1311   1.507       .  S
C1306      C1307   1.409       .  A
C1307      C1308   1.399       .  A
C1307      H1312   1.082       .  S
C1308      C1309   1.405       .  A
C1308      H1313   1.083       .  S
C1309      C1310   1.408       .  A
C1310      H1314   1.083       .  S
C1311      C1316   1.408       .  A
C1311      C1320   1.408       .  A
C1316      C1317   1.408       .  A
C1316      H1321   1.082       .  S
C1317      C1318   1.417       .  A
C1317      H1322   1.079       .  S
C1318      C1319   1.413       .  A
C1319      C1320   1.400       .  A
C1319      H1323   1.083       .  S
C1320      H1324   1.082       .  S
C1325      C1326   1.410       .  A
C1325      C1330   1.410       .  A
C1325      H1335   1.083       .  S
C1326      C1331   1.493       .  S
C1326      C1327   1.403       .  A
C1327      C1328   1.391       .  A
C1327      H1332   1.083       .  S
C1328      C1329   1.407       .  A
C1328      H1333   1.083       .  S
C1329      C1330   1.408       .  A
C1330      H1334   1.083       .  S
C1331      C1336   1.402       .  A
C1331      C1340   1.405       .  A
C1336      C1337   1.393       .  A
C1336      H1341   1.083       .  S
C1337      C1338   1.417       .  A
C1337      H1342   1.079       .  S
C1338      C1339   1.416       .  A
C1339      C1340   1.407       .  A
C1339      H1343   1.083       .  S
C1340      H1344   1.083       .  S
