geometry optimzed in LAMMPS
_audit_creation_date              2020-11-30 
_audit_creation_method            'lammps2cif' 
_symmetry_space_group_name_H-M    'P1' 
_symmetry_Int_Tables_number       1 
_symmetry_cell_setting            triclinic 
loop_ 
_symmetry_equiv_pos_as_xyz 
  x,y,z 
_cell_length_a                    30.69062257 
_cell_length_b                    41.052885728768516 
_cell_length_c                    30.834722233644282 
_cell_angle_alpha                 90.07724671158245 
_cell_angle_beta                  89.82784093800254 
_cell_angle_gamma                 89.99785501355164 
loop_ 
_atom_site_label 
_atom_site_type_symbol 
_atom_site_fract_x 
_atom_site_fract_y 
_atom_site_fract_z 
_atom_site_charge 
O1          O  0.40424058  0.45155996  0.58478370    -0.75100
O2          O  0.44785597  0.41378130  0.55194772    -0.54000
C3          C  0.41581021  0.42205557  0.57636381     0.78600
O4          O  0.40431794  0.56221393  0.42349778    -0.59700
O5          O  0.44320565  0.60061689  0.46008154    -0.52700
C6          C  0.41374319  0.59197650  0.43274492     0.70600
O7          O  0.40407312  0.45235955  0.42239738    -0.74300
O8          O  0.44527302  0.41473514  0.45791955    -0.54800
C9          C  0.41532818  0.42281301  0.43097250     0.76600
O10         O  0.40861821  0.56136526  0.59226335    -0.59400
O11         O  0.44531978  0.60041418  0.55469796    -0.52500
C12         C  0.41675296  0.59129579  0.58289993     0.73200
Zr13       Zr  0.43153561  0.50665643  0.57176900     2.54700
O14         O  0.35288702  0.50864774  0.58181576    -0.80000
O15         O  0.44174263  0.50239912  0.64979048    -0.93400
Zr16       Zr  0.42603957  0.50737429  0.44357281     2.64700
O17         O  0.34711832  0.50746529  0.45186485    -0.98400
O18         O  0.42179676  0.50884000  0.36477152    -0.80400
O19         O  0.42758969  0.47544696  0.50734132    -0.83800
O20         O  0.42801688  0.53872575  0.50804474    -2.18500
O21         O  0.58076426  0.56179514  0.58924248    -0.67200
O22         O  0.54214932  0.60068847  0.55369509    -0.51700
C23         C  0.57125217  0.59167537  0.58130466     0.71600
O24         O  0.57665346  0.45263291  0.41608216    -0.60100
O25         O  0.54097323  0.41487320  0.45724947    -0.52100
C26         C  0.56831455  0.42312195  0.42774832     0.73400
O27         O  0.57631351  0.56255348  0.41728030    -0.71500
O28         O  0.53936606  0.60101445  0.45581953    -0.50100
C29         C  0.56721014  0.59231020  0.42661450     0.74800
O30         O  0.58787788  0.45265198  0.57947456    -0.66800
O31         O  0.54397306  0.41455269  0.54804795    -0.54000
C32         C  0.57668652  0.42308107  0.57130861     0.73200
Zr33       Zr  0.56062642  0.50735199  0.56584607     2.77500
O34         O  0.63978941  0.50978060  0.56043441    -0.97500
O35         O  0.56375852  0.50390738  0.64461702    -0.78400
Zr36       Zr  0.55482369  0.50772409  0.43746896     2.70100
O37         O  0.63386501  0.50547818  0.43123853    -0.79600
O38         O  0.54551516  0.50950309  0.35911965    -0.98700
Zr39       Zr  0.49360387  0.44531768  0.50431205     2.21500
Zr40       Zr  0.49327554  0.57051477  0.50586135     2.11100
O41         O  0.55888745  0.53933817  0.50201048    -2.47400
O42         O  0.55892024  0.47618555  0.50137435    -0.79400
O43         O  0.49588145  0.53882081  0.57058395    -0.71600
O44         O  0.49060310  0.47595644  0.43883514    -2.32600
O45         O  0.49635263  0.47538407  0.57029093    -2.28800
O46         O  0.49032632  0.53945372  0.44040917    -0.73400
H47         H  0.40243683  0.55248566  0.50909932     0.78600
H48         H  0.48974236  0.46198646  0.41361747     0.79700
H49         H  0.58413456  0.55337766  0.50116972     0.81900
H50         H  0.49740818  0.46099949  0.59503659     0.79600
H51         H  0.39147610  0.50234236  0.35810096     0.42600
H52         H  0.52485130  0.52764499  0.35420116     0.41600
H53         H  0.64459318  0.51397917  0.45930116     0.41200
H54         H  0.64608757  0.52983031  0.54372680     0.39200
H55         H  0.54833690  0.48345960  0.65196943     0.42300
H56         H  0.41378756  0.50996707  0.66234451     0.37100
H57         H  0.34095304  0.50730139  0.55207546     0.43200
H58         H  0.33587414  0.50191439  0.42272684     0.39600
H59         H  0.64968358  0.51477488  0.59022514     0.44500
H60         H  0.46278044  0.51988313  0.65688801     0.43300
H61         H  0.34070723  0.48799828  0.46972102     0.43400
H62         H  0.57372376  0.51766669  0.34787637     0.43800
O63         O  0.90675388  0.45333837  0.92122166    -0.75100
O64         O  0.94552209  0.41423045  0.95630614    -0.54000
C65         C  0.91722607  0.42352767  0.92822695     0.78600
O66         O  0.07483042  0.56134237  0.91558320    -0.59700
O67         O  0.04024961  0.59986270  0.95617037    -0.52700
C68         C  0.06672193  0.59114737  0.92556644     0.70600
O69         O  0.07054970  0.45163729  0.91018532    -0.74300
O70         O  0.03814008  0.41372767  0.95343255    -0.54800
C71         C  0.06265214  0.42194387  0.92149290     0.76600
O72         O  0.90266691  0.56147935  0.92886805    -0.59400
O73         O  0.94336830  0.60018500  0.96252279    -0.52500
C74         C  0.91278258  0.59127158  0.93644243     0.73200
Zr75       Zr  0.92546850  0.50692898  0.94779114     2.54700
O76         O  0.91968923  0.50989918  0.86919363    -0.80000
O77         O  0.84669314  0.50468938  0.95689600    -0.93400
Zr78       Zr  0.05389472  0.50658687  0.93689592     2.64700
O79         O  0.04855661  0.51098405  0.85835984    -0.98400
O80         O  0.13312141  0.50490514  0.93452465    -0.80400
O81         O  0.98934682  0.47518796  0.94034409    -0.83800
O82         O  0.98965277  0.53847468  0.94196367    -2.18500
O83         O  0.91145241  0.55841521  0.09767632    -0.67200
O84         O  0.94613568  0.59760314  0.05831901    -0.51700
C85         C  0.91887253  0.58834086  0.08782303     0.71600
O86         O  0.08684408  0.44984959  0.08262341    -0.60100
O87         O  0.04452924  0.41229683  0.04790016    -0.52100
C88         C  0.07551232  0.42034106  0.07372208     0.73400
O89         O  0.08482906  0.55977640  0.08787452    -0.71500
O90         O  0.04427540  0.59873059  0.05436925    -0.50100
C91         C  0.07419182  0.58966284  0.08100792     0.74800
O92         O  0.91875233  0.44894487  0.09866528    -0.66800
O93         O  0.95108220  0.41137753  0.05488053    -0.54000
C94         C  0.92679493  0.41933390  0.08728119     0.73200
Zr95       Zr  0.93539460  0.50448497  0.07549851     2.77500
O96         O  0.94524817  0.50422355  0.15391687    -0.97500
O97         O  0.85635581  0.50144559  0.08103346    -0.78400
Zr98       Zr  0.06389551  0.50525284  0.06451713     2.70100
O99         O  0.07095690  0.50330148  0.14308505    -0.79600
O100        O  0.14236527  0.50604517  0.05292230    -0.98700
Zr101      Zr  0.99407739  0.44342455  0.00455758     2.21500
Zr102      Zr  0.99430765  0.56939790  0.00734738     2.11100
O103        O  0.99937668  0.53675785  0.07141365    -2.47400
O104        O  0.99989812  0.47324448  0.07042065    -0.79400
O105        O  0.92942957  0.53761292  0.01262162    -0.71600
O106        O  0.05981396  0.47420329  0.99994295    -2.32600
O107        O  0.92844393  0.47395470  0.01071403    -2.28800
O108        O  0.05964661  0.53804330  0.00136222    -0.73400
H109        H  0.98774930  0.55256682  0.91693290     0.78600
H110        H  0.08498763  0.46016859  0.99749291     0.79700
H111        H  0.00093569  0.55032217  0.09700143     0.81900
H112        H  0.90326165  0.45985811  0.01212042     0.79600
H113        H  0.14056815  0.50957024  0.90388888     0.42600
H114        H  0.14730377  0.52441519  0.03273803     0.41600
H115        H  0.04158817  0.50892285  0.15414418     0.41200
H116        H  0.95913185  0.52538085  0.16074373     0.39200
H117        H  0.85056579  0.49695455  0.11206205     0.42300
H118        H  0.83502667  0.50865483  0.92746893     0.37100
H119        H  0.94108800  0.49377305  0.85829854     0.43200
H120        H  0.07633118  0.50188916  0.84727060     0.39600
H121        H  0.91542427  0.50609073  0.16596919     0.44500
H122        H  0.83929056  0.52465011  0.97341670     0.43300
H123        H  0.02625890  0.49472748  0.85010033     0.43400
H124        H  0.15454232  0.51361570  0.08088484     0.43800
C125        C  0.74375357  0.26049306  0.75242786    -0.02300
O126        O  0.57267256  0.06603960  0.91125210    -0.75100
O127        O  0.53750574  0.10443150  0.95130335    -0.54000
C128        C  0.56403318  0.09578138  0.92101287     0.78600
O129        O  0.40362198  0.95660973  0.91874407    -0.59700
O130        O  0.44331253  0.91772839  0.95338062    -0.52700
C131        C  0.41313587  0.92673891  0.92698477     0.70600
O132        O  0.40406202  0.06650947  0.91888841    -0.74300
O133        O  0.44273674  0.10432193  0.95658432    -0.54800
C134        C  0.41335642  0.09620210  0.92899402     0.76600
O135        O  0.57617863  0.95644083  0.91192956    -0.59400
O136        O  0.54031482  0.91765528  0.95076324    -0.52500
C137        C  0.56741546  0.92662052  0.92117068     0.73200
Zr138      Zr  0.55575508  0.01105949  0.93456860     2.54700
O139        O  0.55679951  0.01054091  0.85562962    -0.80000
O140        O  0.63514671  0.01258925  0.93410409    -0.93400
Zr141      Zr  0.42685068  0.01129189  0.93818657     2.64700
O142        O  0.42864239  0.01109872  0.85921180    -0.98400
O143        O  0.34762770  0.01258171  0.94132977    -0.80400
O144        O  0.49123409  0.04284596  0.93510299    -0.83800
O145        O  0.49124122  0.97942217  0.93501399    -2.18500
O146        O  0.58196974  0.95551747  0.08290975    -0.67200
O147        O  0.54253445  0.91728560  0.04653008    -0.51700
C148        C  0.57196438  0.92570352  0.07406442     0.71600
O149        O  0.41234009  0.06387899  0.09227816    -0.60100
O150        O  0.44773647  0.10238785  0.05264235    -0.52100
C151        C  0.42147295  0.09361908  0.08306005     0.73400
O152        O  0.40679678  0.95514761  0.08533432    -0.71500
O153        O  0.44507190  0.91700751  0.04761663    -0.50100
C154        C  0.41584528  0.92542788  0.07553695     0.74800
O155        O  0.57700563  0.06635934  0.08644063    -0.66800
O156        O  0.53917822  0.10418538  0.04802100    -0.54000
C157        C  0.56679982  0.09607949  0.07722816     0.73200
Zr158      Zr  0.56004000  0.01070697  0.06241888     2.77500
O159        O  0.56566732  0.00904647  0.14113868    -0.97500
O160        O  0.63869664  0.01318989  0.05232571    -0.78400
Zr161      Zr  0.43084088  0.00974710  0.06653782     2.70100
O162        O  0.43749265  0.00622309  0.14499127    -0.79600
O163        O  0.35154181  0.01167933  0.06965439    -0.98700
Zr164      Zr  0.49254817  0.07315945  0.00089176     2.21500
Zr165      Zr  0.49330958  0.94765072  0.99988689     2.11100
O166        O  0.49564315  0.97859665  0.06533646    -2.47400
O167        O  0.49504084  0.04171046  0.06560915    -0.79400
O168        O  0.55899570  0.97882722  0.99818468    -0.71600
O169        O  0.42714442  0.04208246  0.00304401    -2.32600
O170        O  0.55883946  0.04280335  0.99868774    -2.28800
O171        O  0.42787062  0.97880425  0.00181280    -0.73400
H172        H  0.49047463  0.96564051  0.90957990     0.78600
H173        H  0.40177667  0.05601691  0.00433580     0.79700
H174        H  0.49626012  0.96453396  0.09041716     0.81900
H175        H  0.58382494  0.05713543  0.99801973     0.79600
H176        H  0.33822027  0.00885929  0.91104490     0.42600
H177        H  0.34358772  0.03315755  0.05743800     0.41600
H178        H  0.40725695  0.00854593  0.15585200     0.41200
H179        H  0.59100003  0.02296942  0.14825244     0.39200
H180        H  0.65086132  0.00559628  0.08024062     0.42300
H181        H  0.64409143  0.99319224  0.95091623     0.37100
H182        H  0.52595960  0.00749869  0.84726006     0.43200
H183        H  0.39799327  0.01461318  0.85046916     0.39600
H184        H  0.54005872  0.02151305  0.15156792     0.44500
H185        H  0.64294639  0.03130880  0.95280040     0.43300
H186        H  0.44367298  0.03160405  0.85129559     0.43400
H187        H  0.34192183  0.99580738  0.04745950     0.43800
C188        C  0.24074458  0.75952016  0.75218814    -0.02300
O189        O  0.89458232  0.06408438  0.42853243    -0.75100
O190        O  0.93974445  0.10218343  0.45830253    -0.54000
C191        C  0.90715133  0.09363878  0.43493657     0.78600
O192        O  0.91753946  0.95261646  0.59451722    -0.59700
O193        O  0.94957082  0.91512189  0.55037215    -0.52700
C194        C  0.92437392  0.92308322  0.58218111     0.70600
O195        O  0.91141304  0.06153989  0.59432220    -0.74300
O196        O  0.94439033  0.10085566  0.55389743    -0.54800
C197        C  0.91796714  0.09143433  0.58384287     0.76600
O198        O  0.90113338  0.95465906  0.42309494    -0.59400
O199        O  0.94451681  0.91644690  0.45442426    -0.52500
C200        C  0.91318359  0.92502693  0.42922742     0.73200
Zr201      Zr  0.92089934  0.00935043  0.44535828     2.54700
O202        O  0.84254020  0.00605505  0.45687809    -0.80000
O203        O  0.91264247  0.01180436  0.36694297    -0.93400
Zr204      Zr  0.93633150  0.00781736  0.57277177     2.64700
O205        O  0.85759039  0.00627091  0.58260495    -0.98400
O206        O  0.95027696  0.00794096  0.65051562    -0.80400
O207        O  0.92612870  0.04016482  0.50997717    -0.83800
O208        O  0.92846416  0.97689207  0.50839065    -2.18500
O209        O  0.06787887  0.95628766  0.40437279    -0.67200
O210        O  0.03875815  0.91715230  0.44784990    -0.51700
C211        C  0.06223959  0.92631012  0.41535471     0.71600
O212        O  0.08736182  0.06720596  0.57402283    -0.60100
O213        O  0.04003874  0.10403144  0.54494595    -0.52100
C214        C  0.07365605  0.09650199  0.56739589     0.73400
O215        O  0.08464483  0.95677182  0.58047343    -0.71500
O216        O  0.04598822  0.91744323  0.54537906    -0.50100
C217        C  0.07539991  0.92680780  0.57237957     0.74800
O218        O  0.06695537  0.06691524  0.40817357    -0.66800
O219        O  0.03414457  0.10386301  0.45317160    -0.54000
C220        C  0.05892135  0.09622465  0.42110230     0.73200
Zr221      Zr  0.04916051  0.01100374  0.42970798     2.77500
O222        O  0.12821183  0.01065255  0.42237469    -0.97500
O223        O  0.03890590  0.01168069  0.35146770    -0.78400
Zr224      Zr  0.06453004  0.01128960  0.55696834     2.70100
O225        O  0.14175924  0.01017505  0.53877306    -0.79600
O226        O  0.07943620  0.01515185  0.63435500    -0.98700
Zr227      Zr  0.99027210  0.07202957  0.50245150     2.21500
Zr228      Zr  0.99442223  0.94673190  0.50033182     2.11100
O229        O  0.05871749  0.97917923  0.49314666    -2.47400
O230        O  0.05660711  0.04283226  0.49349825    -0.79400
O231        O  0.98571069  0.97847584  0.43623491    -0.71600
O232        O  0.99921287  0.04107960  0.56698929    -2.32600
O233        O  0.98407100  0.04166363  0.43684855    -2.28800
O234        O  0.00177287  0.97781907  0.56534533    -0.73400
H235        H  0.90365967  0.96258020  0.51072480     0.78600
H236        H  0.00155137  0.05512984  0.59209657     0.79700
H237        H  0.08425134  0.96553383  0.49030977     0.81900
H238        H  0.98086001  0.05585080  0.41207216     0.79600
H239        H  0.96839830  0.02750826  0.65568327     0.42600
H240        H  0.05564657  0.00267966  0.64830701     0.41600
H241        H  0.14682738  0.03066296  0.52259999     0.41200
H242        H  0.13771742  0.99001010  0.43597059     0.39200
H243        H  0.00919823  0.02051394  0.34735850     0.42300
H244        H  0.88349672  0.00241115  0.36134626     0.37100
H245        H  0.83797733  0.01501598  0.48636720     0.43200
H246        H  0.84751071  0.98820324  0.56387577     0.39600
H247        H  0.13345468  0.00734320  0.39097474     0.44500
H248        H  0.93329587  0.99528919  0.35562566     0.43300
H249        H  0.85323695  0.99822795  0.61257702     0.43400
H250        H  0.10585957  0.00175191  0.63898258     0.43800
C251        C  0.74107868  0.75897057  0.25289936    -0.02300
C252        C  0.24572974  0.25752747  0.25521341    -0.02300
C253        C  0.74059777  0.25807487  0.25405704    -0.02300
C254        C  0.24617330  0.75807133  0.25316330    -0.02300
C255        C  0.24023887  0.25819066  0.75062647    -0.02300
C256        C  0.74632936  0.75793055  0.75585634    -0.02300
C257        C  0.10080813  0.17311052  0.63039036    -0.27400
C258        C  0.14651273  0.17319090  0.62810629     0.02200
C259        C  0.16774590  0.14920179  0.60288976     0.30200
C260        C  0.14368788  0.12425471  0.58345365    -0.19200
C261        C  0.09820279  0.12353230  0.58711966    -0.28600
C262        C  0.07662434  0.14873000  0.60969968     0.44300
C263        C  0.17190520  0.19538436  0.65649600     0.05500
O264        O  0.21217649  0.14949284  0.59792174    -0.57200
H265        H  0.16058488  0.10548549  0.56525524     0.18400
O266        O  0.03202948  0.14910877  0.61311008    -0.63900
H267        H  0.08387087  0.19109424  0.64987011     0.16900
C268        C  0.16452763  0.22914323  0.65806776     0.29100
C269        C  0.18771393  0.24852469  0.68758783    -0.24800
C270        C  0.21742848  0.23485912  0.71763869    -0.24000
C271        C  0.22717545  0.20103201  0.71261443     0.40600
C272        C  0.20336962  0.18188810  0.68372874    -0.26500
O273        O  0.13546591  0.24351168  0.63029709    -0.58400
H274        H  0.18120345  0.27445465  0.68817053     0.16200
O275        O  0.26065513  0.18608136  0.73422654    -0.59800
H276        H  0.20995005  0.15596441  0.68256542     0.14600
H277        H  0.02485695  0.13293080  0.63589943     0.46500
H278        H  0.10994498  0.24941823  0.64848879     0.41900
H279        H  0.28278451  0.18049987  0.71192273     0.45300
H280        H  0.21790617  0.16543627  0.57445092     0.36800
C281        C  0.12489365  0.17180772  0.39519002    -0.27400
C282        C  0.12371005  0.17178549  0.34964941     0.02200
C283        C  0.09886034  0.14779114  0.32809992     0.30200
C284        C  0.07751297  0.12356346  0.35182456    -0.19200
C285        C  0.07977047  0.12306338  0.39716637    -0.28600
C286        C  0.10304530  0.14769074  0.41897282     0.44300
C287        C  0.15257724  0.19403318  0.32472389     0.05500
O288        O  0.09640377  0.14716444  0.28368914    -0.57200
H289        H  0.05932418  0.10493660  0.33473219     0.18400
O290        O  0.10625122  0.14753665  0.46335454    -0.63900
H291        H  0.14445332  0.18961193  0.41228211     0.16900
C292        C  0.15198147  0.22802351  0.33018431     0.29100
C293        C  0.18118649  0.24767322  0.30665976    -0.24800
C294        C  0.21296046  0.23408431  0.27850326    -0.24000
C295        C  0.21005861  0.19977873  0.27070178     0.40600
C296        C  0.18159416  0.18047534  0.29484946    -0.26500
O297        O  0.12230294  0.24232002  0.35756668    -0.58400
H298        H  0.18010004  0.27378686  0.31163311     0.16200
O299        O  0.23319173  0.18433310  0.23862683    -0.59800
H300        H  0.18191327  0.15436619  0.28956596     0.14600
H301        H  0.13205082  0.13384343  0.46982908     0.46500
H302        H  0.13888923  0.24780597  0.38414598     0.41900
H303        H  0.21222149  0.18042555  0.21478965     0.45300
H304        H  0.07489424  0.16422608  0.27606108     0.36800
C305        C  0.88090533  0.84025830  0.61991709    -0.27400
C306        C  0.85246670  0.84975578  0.65336500     0.02200
C307        C  0.84756465  0.88303554  0.66281645     0.30200
C308        C  0.87132230  0.90623565  0.63963883    -0.19200
C309        C  0.90043990  0.89707799  0.60631961    -0.28600
C310        C  0.90494771  0.86353856  0.59656250     0.44300
C311        C  0.82743840  0.82514880  0.67827609     0.05500
O312        O  0.81918774  0.89321934  0.69452634    -0.57200
H313        H  0.86646172  0.93164136  0.64783830     0.18400
O314        O  0.93216732  0.85314148  0.56402473    -0.63900
H315        H  0.88476243  0.81466893  0.61215572     0.16900
C316        C  0.79698245  0.80486458  0.65783363     0.29100
C317        C  0.77107561  0.78373556  0.68245004    -0.24800
C318        C  0.77599421  0.78089049  0.72801311    -0.24000
C319        C  0.80615859  0.80241167  0.74820625     0.40600
C320        C  0.83141596  0.82391485  0.72341254    -0.26500
O321        O  0.79118071  0.80623196  0.61377399    -0.58400
H322        H  0.74626536  0.77040522  0.66518160     0.16200
O323        O  0.81026080  0.80331186  0.79248365    -0.59800
H324        H  0.85404980  0.84004370  0.73971148     0.14600
H325        H  0.96018662  0.84813864  0.57850943     0.46500
H326        H  0.77201372  0.82530834  0.60884513     0.41900
H327        H  0.84073280  0.79683217  0.79879495     0.45300
H328        H  0.79034902  0.89439880  0.68018773     0.36800
C329        C  0.13960029  0.88486323  0.33505997    -0.27400
C330        C  0.13342289  0.85195911  0.34495943     0.02200
C331        C  0.10195442  0.84320827  0.37606759     0.30200
C332        C  0.07858466  0.86746863  0.39834035    -0.19200
C333        C  0.08533978  0.90077167  0.38931538    -0.28600
C334        C  0.11553753  0.90911545  0.35623252     0.44300
C335        C  0.16077066  0.82719016  0.32296776     0.05500
O336        O  0.09503645  0.81108286  0.38609446    -0.57200
H337        H  0.05541794  0.86009867  0.42301481     0.18400
O338        O  0.12287832  0.94092636  0.34486570    -0.63900
H339        H  0.16334388  0.89180352  0.31067647     0.16900
C340        C  0.14370693  0.80740682  0.29007889     0.29100
C341        C  0.17045818  0.78483588  0.26873307    -0.24800
C342        C  0.21521524  0.78134475  0.27924626    -0.24000
C343        C  0.23238667  0.80311309  0.31082555     0.40600
C344        C  0.20518081  0.82523750  0.33258642    -0.26500
O345        O  0.10124088  0.81094828  0.27717078    -0.58400
H346        H  0.15595670  0.77144798  0.24229397     0.16200
O347        O  0.27619916  0.80370933  0.31953510    -0.59800
H348        H  0.21906097  0.84140640  0.35667849     0.14600
H349        H  0.10208715  0.94538888  0.32102133     0.46500
H350        H  0.10155639  0.82934262  0.25633341     0.41900
H351        H  0.27920836  0.79674533  0.35016845     0.45300
H352        H  0.07063155  0.80411074  0.36722084     0.36800
C353        C  0.87784950  0.84368747  0.38055742    -0.27400
C354        C  0.84158146  0.85323669  0.35601473     0.02200
C355        C  0.82895319  0.88617446  0.35605102     0.30200
C356        C  0.85218571  0.90885571  0.38048106    -0.19200
C357        C  0.88881094  0.89957145  0.40498037    -0.28600
C358        C  0.90145558  0.86646554  0.40485170     0.44300
C359        C  0.81702151  0.82878090  0.33051346     0.05500
O360        O  0.79414470  0.89658541  0.33191235    -0.57200
H361        H  0.84143084  0.93398047  0.37974025     0.18400
O362        O  0.93728109  0.85607719  0.42741928    -0.63900
H363        H  0.88779924  0.81837031  0.38110076     0.16900
C364        C  0.83830476  0.80784537  0.30125303     0.29100
C365        C  0.81435630  0.78535744  0.27702628    -0.24800
C366        C  0.76852534  0.78276866  0.28126113    -0.24000
C367        C  0.74740722  0.80511028  0.30969901     0.40600
C368        C  0.77164725  0.82716856  0.33435757    -0.26500
O369        O  0.88252448  0.80975886  0.29503559    -0.58400
H370        H  0.83220038  0.77107708  0.25353022     0.16200
O371        O  0.70276550  0.80598117  0.31289482    -0.59800
H372        H  0.75467159  0.84329121  0.35654190     0.14600
H373        H  0.92604799  0.84979347  0.45641877     0.46500
H374        H  0.88698554  0.82873092  0.27565052     0.41900
H375        H  0.69566563  0.79995079  0.34324932     0.45300
H376        H  0.80680685  0.90402381  0.30401018     0.36800
C377        C  0.77747600  0.17854234  0.31391866    -0.27400
C378        C  0.81092312  0.19043601  0.34010255     0.02200
C379        C  0.82018436  0.22393453  0.33966880     0.30200
C380        C  0.79685339  0.24474980  0.31233513    -0.19200
C381        C  0.76429173  0.23296005  0.28391630    -0.28600
C382        C  0.75299684  0.19925175  0.28763033     0.44300
C383        C  0.83568041  0.16734568  0.36750042     0.05500
O384        O  0.85199117  0.23665611  0.36584267    -0.57200
H385        H  0.80482752  0.27045123  0.31271164     0.18400
O386        O  0.71730796  0.18601794  0.26746565    -0.63900
H387        H  0.76956976  0.15282129  0.31426679     0.16900
C388        C  0.81391497  0.14507179  0.39482493     0.29100
C389        C  0.83759859  0.12120991  0.41695963    -0.24800
C390        C  0.88299406  0.11962807  0.41290659    -0.24000
C391        C  0.90495336  0.14249820  0.38681447     0.40600
C392        C  0.88126658  0.16604656  0.36415691    -0.26500
O393        O  0.76968133  0.14712746  0.40099977    -0.58400
H394        H  0.82051646  0.10402732  0.43754677     0.16200
O395        O  0.94941943  0.14137783  0.38222223    -0.59800
H396        H  0.89843849  0.18272200  0.34293065     0.14600
H397        H  0.69695848  0.17936836  0.29088656     0.46500
H398        H  0.75726066  0.12777345  0.38625030     0.41900
H399        H  0.95479800  0.12672190  0.35717404     0.45300
H400        H  0.83803593  0.23928799  0.39468729     0.36800
C401        C  0.16182119  0.88548462  0.64143976    -0.27400
C402        C  0.14661221  0.85335539  0.64274945     0.02200
C403        C  0.10839777  0.84514814  0.62004279     0.30200
C404        C  0.08565036  0.86910697  0.59703356    -0.19200
C405        C  0.10055591  0.90152923  0.59606257    -0.28600
C406        C  0.13946257  0.90939921  0.61830261     0.44300
C407        C  0.16987966  0.82913163  0.66966666     0.05500
O408        O  0.09286981  0.81382041  0.62037385    -0.57200
H409        H  0.05600518  0.86228660  0.58033458     0.18400
O410        O  0.15592844  0.94046108  0.61818603    -0.63900
H411        H  0.19090412  0.89226137  0.65913754     0.16900
C412        C  0.21490441  0.82415363  0.66515887     0.29100
C413        C  0.23646696  0.80267146  0.69283391    -0.24800
C414        C  0.21382615  0.78383752  0.72404148    -0.24000
C415        C  0.16873874  0.79095113  0.73018921     0.40600
C416        C  0.14735618  0.81267771  0.70247063    -0.26500
O417        O  0.23818953  0.84001597  0.63354822    -0.58400
H418        H  0.27121594  0.79969573  0.68861288     0.16200
O419        O  0.14522475  0.77825432  0.76404824    -0.59800
H420        H  0.11305385  0.81761203  0.70774120     0.14600
H421        H  0.17714164  0.94093970  0.59386732     0.46500
H422        H  0.23764538  0.82522547  0.60809417     0.41900
H423        H  0.14135210  0.79641440  0.78494776     0.45300
H424        H  0.10845396  0.80261345  0.59640593     0.36800
C425        C  0.64122471  0.22280853  0.19028310    -0.27400
C426        C  0.66196251  0.19745478  0.16779316     0.02200
C427        C  0.70763587  0.19660889  0.16654069     0.30200
C428        C  0.73163594  0.21839313  0.19176464    -0.19200
C429        C  0.71101076  0.24058695  0.22039857    -0.28600
C430        C  0.66525269  0.24487605  0.21573300     0.44300
C431        C  0.63595765  0.17176232  0.14608453     0.05500
O432        O  0.72904945  0.17444303  0.14077069    -0.57200
H433        H  0.76678214  0.21599396  0.19176585     0.18400
O434        O  0.64432926  0.27163446  0.23266604    -0.63900
H435        H  0.60610351  0.22520001  0.18871159     0.16900
C436        C  0.64256344  0.13864100  0.15604050     0.29100
C437        C  0.61936671  0.11454142  0.13395575    -0.24800
C438        C  0.58893583  0.12266123  0.10170678    -0.24000
C439        C  0.58109702  0.15607675  0.09305466     0.40600
C440        C  0.60439274  0.18018973  0.11536169    -0.26500
O441        O  0.67194853  0.12944467  0.18715798    -0.58400
H442        H  0.62571384  0.08931055  0.14199726     0.16200
O443        O  0.55081146  0.16562679  0.06300360    -0.59800
H444        H  0.59849667  0.20558776  0.10786218     0.14600
H445        H  0.61781842  0.26353082  0.24765295     0.46500
H446        H  0.65726500  0.13371579  0.21528441     0.41900
H447        H  0.56773678  0.17048667  0.03632945     0.45300
H448        H  0.74447316  0.15962277  0.16095035     0.36800
C449        C  0.33612817  0.19569665  0.22540039    -0.27400
C450        C  0.33542281  0.19596080  0.18013379     0.02200
C451        C  0.31007040  0.21936027  0.15861901     0.30200
C452        C  0.28376358  0.24083067  0.18249163    -0.19200
C453        C  0.28003267  0.23818014  0.22807308    -0.28600
C454        C  0.30955185  0.21670236  0.24935294     0.44300
C455        C  0.35874715  0.17009383  0.15604402     0.05500
O456        O  0.30824493  0.21978790  0.11415974    -0.57200
H457        H  0.26565138  0.25874732  0.16448055     0.18400
O458        O  0.30927536  0.21352168  0.29360942    -0.63900
H459        H  0.35618806  0.17814678  0.24237877     0.16900
C460        C  0.39041198  0.17749006  0.12456572     0.29100
C461        C  0.41044557  0.15243832  0.10111912    -0.24800
C462        C  0.40011038  0.11957455  0.10915620    -0.24000
C463        C  0.36937662  0.11225376  0.14208728     0.40600
C464        C  0.34887980  0.13742671  0.16485085    -0.26500
O465        O  0.40231163  0.20912971  0.11671773    -0.58400
H466        H  0.43432852  0.15891093  0.07667208     0.16200
O467        O  0.35827056  0.08072192  0.15187966    -0.59800
H468        H  0.32471884  0.13140468  0.18927184     0.14600
H469        H  0.33651011  0.22412595  0.30359610     0.46500
H470        H  0.42557697  0.21389862  0.13804180     0.41900
H471        H  0.37740607  0.07454899  0.17638911     0.45300
H472        H  0.32348850  0.24001803  0.10529215     0.36800
C473        C  0.37458820  0.84281661  0.11602178    -0.27400
C474        C  0.34180632  0.85246726  0.14513002     0.02200
C475        C  0.33280968  0.88578099  0.15040949     0.30200
C476        C  0.35715459  0.90896585  0.12762998    -0.19200
C477        C  0.39039093  0.89963267  0.09847159    -0.28600
C478        C  0.39842256  0.86598940  0.09235444     0.44300
C479        C  0.31842630  0.82784483  0.17149287     0.05500
O480        O  0.30167132  0.89595258  0.17946262    -0.57200
H481        H  0.34989383  0.93445125  0.13321819     0.18400
O482        O  0.42999914  0.85534902  0.06414906    -0.63900
H483        H  0.38170875  0.81716763  0.11165094     0.16900
C484        C  0.27320332  0.82384323  0.16812019     0.29100
C485        C  0.25155500  0.80193674  0.19527515    -0.24800
C486        C  0.27409116  0.78225738  0.22560732    -0.24000
C487        C  0.31964072  0.78810859  0.23041265     0.40600
C488        C  0.34124550  0.80980411  0.20245736    -0.26500
O489        O  0.24974040  0.84118456  0.13821576    -0.58400
H490        H  0.21664827  0.79938862  0.19151747     0.16200
O491        O  0.34342016  0.77419876  0.26309587    -0.59800
H492        H  0.37595652  0.81364609  0.20633477     0.14600
H493        H  0.41501689  0.85282341  0.03588576     0.46500
H494        H  0.25203479  0.82849337  0.11091439     0.41900
H495        H  0.35233553  0.79234438  0.28240425     0.45300
H496        H  0.27711987  0.90396588  0.16154711     0.36800
C497        C  0.63624516  0.88438411  0.83514743    -0.27400
C498        C  0.63625343  0.85213556  0.84993177     0.02200
C499        C  0.61251978  0.84422636  0.88768180     0.30200
C500        C  0.58990309  0.86853494  0.91030995    -0.19200
C501        C  0.59031723  0.90101321  0.89581619    -0.28600
C502        C  0.61329975  0.90859855  0.85727389     0.44300
C503        C  0.66296695  0.82752281  0.82676400     0.05500
O504        O  0.61162232  0.81288987  0.90303281    -0.57200
H505        H  0.57249108  0.86192306  0.93961866     0.18400
O506        O  0.61417537  0.93966236  0.84095817    -0.63900
H507        H  0.65486773  0.89105975  0.80660584     0.16900
C508        C  0.66118453  0.82429066  0.78144703     0.29100
C509        C  0.68915453  0.80270631  0.76016348    -0.24800
C510        C  0.71787299  0.78203010  0.78310425    -0.24000
C511        C  0.72087410  0.78684034  0.82889971     0.40600
C512        C  0.69307010  0.80887993  0.84990883    -0.26500
O513        O  0.63204169  0.84205036  0.75750455    -0.58400
H514        H  0.68728419  0.80117513  0.72513815     0.16200
O515        O  0.75170713  0.77150560  0.85370414    -0.59800
H516        H  0.69632221  0.81229341  0.88460828     0.14600
H517        H  0.58858947  0.94105431  0.82147620     0.46500
H518        H  0.60496784  0.82886515  0.75722905     0.41900
H519        H  0.77153647  0.78884111  0.86428678     0.45300
H520        H  0.58616893  0.80258714  0.88880703     0.36800
C521        C  0.33579393  0.22234896  0.81971063    -0.27400
C522        C  0.31429327  0.19651827  0.84031808     0.02200
C523        C  0.26874681  0.19456602  0.83757566     0.30200
C524        C  0.24599998  0.21614754  0.81087914    -0.19200
C525        C  0.26795117  0.23924116  0.78460371    -0.28600
C526        C  0.31298571  0.24426278  0.79318417     0.44300
C527        C  0.33961221  0.17111944  0.86337433     0.05500
O528        O  0.24622690  0.17160197  0.86095495    -0.57200
H529        H  0.21108026  0.21317754  0.80816092     0.18400
O530        O  0.33510341  0.27064663  0.77718411    -0.63900
H531        H  0.37063327  0.22531579  0.82370293     0.16900
C532        C  0.33716800  0.13832973  0.85020677     0.29100
C533        C  0.36080153  0.11443725  0.87218657    -0.24800
C534        C  0.38827681  0.12255044  0.90703385    -0.24000
C535        C  0.39122532  0.15567038  0.91974310     0.40600
C536        C  0.36712283  0.17955662  0.89782877    -0.26500
O537        O  0.31242983  0.12941457  0.81516114    -0.58400
H538        H  0.35805267  0.08944924  0.86119877     0.16200
O539        O  0.41762238  0.16516971  0.95327360    -0.59800
H540        H  0.36965043  0.20475912  0.90799823     0.14600
H541        H  0.33740319  0.28610785  0.80181347     0.46500
H542        H  0.33125548  0.13335130  0.78949948     0.41900
H543        H  0.39937520  0.16314008  0.97973903     0.45300
H544        H  0.23548747  0.15561723  0.83934171     0.36800
C545        C  0.60893664  0.84270234  0.11752583    -0.27400
C546        C  0.64190683  0.85203215  0.14641152     0.02200
C547        C  0.65179919  0.88526542  0.15114866     0.30200
C548        C  0.62939809  0.90859983  0.12691012    -0.19200
C549        C  0.59602831  0.89963834  0.09795551    -0.28600
C550        C  0.58593722  0.86609852  0.09352862     0.44300
C551        C  0.66591267  0.82723764  0.17188739     0.05500
O552        O  0.68286680  0.89528360  0.18014887    -0.57200
H553        H  0.63801546  0.93395614  0.13143737     0.18400
O554        O  0.55392059  0.85572213  0.06582622    -0.63900
H555        H  0.60103225  0.81714833  0.11354030     0.16900
C556        C  0.64426004  0.80691228  0.20148549     0.29100
C557        C  0.66795010  0.78510025  0.22714736    -0.24800
C558        C  0.71383318  0.78218151  0.22338272    -0.24000
C559        C  0.73522072  0.80381094  0.19426343     0.40600
C560        C  0.71131662  0.82546614  0.16862953    -0.26500
O561        O  0.59992968  0.80892520  0.20663485    -0.58400
H562        H  0.64981078  0.77150321  0.25108137     0.16200
O563        O  0.77975013  0.80363580  0.19013282    -0.59800
H564        H  0.72852024  0.84133945  0.14635053     0.14600
H565        H  0.52671595  0.85605754  0.08326613     0.46500
H566        H  0.59539207  0.82466545  0.23065381     0.41900
H567        H  0.78978549  0.82421907  0.20373372     0.45300
H568        H  0.66701509  0.89843828  0.20791827     0.36800
C569        C  0.32665757  0.88504814  0.85794336    -0.27400
C570        C  0.34061970  0.85259740  0.85842769     0.02200
C571        C  0.37825989  0.84434825  0.88202370     0.30200
C572        C  0.40129194  0.86848879  0.90463721    -0.19200
C573        C  0.38752650  0.90121467  0.90394395    -0.28600
C574        C  0.34955800  0.90921116  0.88019412     0.44300
C575        C  0.31620971  0.82800527  0.83290079     0.05500
O576        O  0.39290273  0.81279533  0.88301111    -0.57200
H577        H  0.43027698  0.86154473  0.92232962     0.18400
O578        O  0.33388268  0.94049073  0.87887024    -0.63900
H579        H  0.29812672  0.89189478  0.83945968     0.16900
C580        C  0.27105967  0.82410946  0.83814303     0.29100
C581        C  0.24829669  0.80216887  0.81190327    -0.24800
C582        C  0.26953927  0.78259349  0.78053136    -0.24000
C583        C  0.31494760  0.78846473  0.77375087     0.40600
C584        C  0.33763455  0.81021202  0.80055295    -0.26500
O585        O  0.24906069  0.84096110  0.86984638    -0.58400
H586        H  0.21350150  0.79998640  0.81673054     0.16200
O587        O  0.33758463  0.77459339  0.74005937    -0.59800
H588        H  0.37206919  0.81421131  0.79474519     0.14600
H589        H  0.34427011  0.94948949  0.85084340     0.46500
H590        H  0.23106604  0.85722401  0.85427449     0.41900
H591        H  0.34168710  0.79217458  0.71840856     0.45300
H592        H  0.37890834  0.80297031  0.90890236     0.36800
C593        C  0.84070484  0.20574251  0.71285060    -0.27400
C594        C  0.82139496  0.18973332  0.67785623     0.02200
C595        C  0.77731716  0.19533661  0.66868309     0.30200
C596        C  0.75341741  0.21721722  0.69389189    -0.19200
C597        C  0.77306970  0.23578361  0.72719838    -0.28600
C598        C  0.81712014  0.22812818  0.73800254     0.44300
C599        C  0.84638089  0.16505832  0.65343095     0.05500
O600        O  0.75715168  0.17938592  0.63516260    -0.57200
H601        H  0.71931061  0.22062679  0.68633750     0.18400
O602        O  0.83622130  0.23946583  0.77528967    -0.63900
H603        H  0.87396706  0.19996828  0.72173585     0.16900
C604        C  0.88442822  0.17328210  0.63039602     0.29100
C605        C  0.90745392  0.14916361  0.60779484    -0.24800
C606        C  0.89309857  0.11660811  0.60796761    -0.24000
C607        C  0.85480682  0.10860252  0.63129332     0.40600
C608        C  0.83186528  0.13276465  0.65354690    -0.26500
O609        O  0.89919078  0.20481347  0.62964912    -0.58400
H610        H  0.93672723  0.15598273  0.59031194     0.16200
O611        O  0.83855528  0.07747303  0.63152866    -0.59800
H612        H  0.80261489  0.12619975  0.67127736     0.14600
H613        H  0.86265726  0.25152671  0.76593813     0.46500
H614        H  0.88718577  0.21429822  0.60264492     0.41900
H615        H  0.84905293  0.06770983  0.65898884     0.45300
H616        H  0.76567531  0.19151400  0.60866326     0.36800
C617        C  0.64150027  0.21370041  0.79661484    -0.27400
C618        C  0.66067444  0.19497904  0.82914269     0.02200
C619        C  0.70574483  0.19662372  0.83550358     0.30200
C620        C  0.73107743  0.21718000  0.80978130    -0.19200
C621        C  0.71228460  0.23797049  0.77837464    -0.28600
C622        C  0.66673638  0.23425431  0.77040043     0.44300
C623        C  0.63454974  0.17041034  0.85221355     0.05500
O624        O  0.72542417  0.17784451  0.86656589    -0.57200
H625        H  0.76581138  0.21781404  0.81560861     0.18400
O626        O  0.64646848  0.24865829  0.73585498    -0.63900
H627        H  0.60699260  0.21112746  0.79004513     0.16900
C628        C  0.60431195  0.17901836  0.88453106     0.29100
C629        C  0.58085792  0.15464982  0.90624869    -0.24800
C630        C  0.58721099  0.12149862  0.89602025    -0.24000
C631        C  0.61734327  0.11331569  0.86279938     0.40600
C632        C  0.64051102  0.13768447  0.84140583    -0.26500
O633        O  0.59894346  0.21097876  0.89638850    -0.58400
H634        H  0.55824454  0.16175992  0.93158839     0.16200
O635        O  0.62452785  0.08161769  0.85057895    -0.59800
H636        H  0.66357653  0.13096539  0.81624109     0.14600
H637        H  0.64539172  0.23171891  0.71293626     0.46500
H638        H  0.57477695  0.21914716  0.87811896     0.41900
H639        H  0.65024396  0.07449494  0.86752275     0.45300
H640        H  0.72900527  0.19244761  0.89195975     0.36800
C641        C  0.16690554  0.29083744  0.16652573    -0.27400
C642        C  0.16815336  0.32447180  0.17412595     0.02200
C643        C  0.18970549  0.33608701  0.21106923     0.30200
C644        C  0.21219708  0.31448613  0.23784632    -0.19200
C645        C  0.21633980  0.28088961  0.22754180    -0.28600
C646        C  0.18964896  0.26912361  0.19334660     0.44300
C647        C  0.14546321  0.34729026  0.14456695     0.05500
O648        O  0.18725015  0.36841337  0.22239799    -0.57200
H649        H  0.22597595  0.32473232  0.26701921     0.18400
O650        O  0.18688668  0.23646435  0.18465661    -0.63900
H651        H  0.14864536  0.28133482  0.13928385     0.16900
C652        C  0.16765459  0.37394624  0.12599090     0.29100
C653        C  0.14466519  0.39722795  0.10219980    -0.24800
C654        C  0.09969836  0.39390507  0.09537946    -0.24000
C655        C  0.07808338  0.36604948  0.11133297     0.40600
C656        C  0.10091503  0.34315955  0.13607610    -0.26500
O657        O  0.21170616  0.37774479  0.13146896    -0.58400
H658        H  0.16198612  0.41808164  0.08924756     0.16200
O659        O  0.03409108  0.36212826  0.10560099    -0.59800
H660        H  0.08345742  0.32270278  0.14991112     0.14600
H661        H  0.15846212  0.22952143  0.19693181     0.46500
H662        H  0.22536478  0.36293860  0.10993574     0.41900
H663        H  0.03119593  0.34917424  0.07858084     0.45300
H664        H  0.21724069  0.37708294  0.21901626     0.36800
C665        C  0.19770980  0.70795468  0.15584720    -0.27400
C666        C  0.16616453  0.68947894  0.17730483     0.02200
C667        C  0.16222506  0.69196814  0.22248020     0.30200
C668        C  0.18875241  0.71354742  0.24545062    -0.19200
C669        C  0.21964249  0.73374180  0.22433302    -0.28600
C670        C  0.22557452  0.72881727  0.17878725     0.44300
C671        C  0.14153420  0.66454670  0.15306067     0.05500
O672        O  0.13282840  0.67303964  0.24462586    -0.57200
H673        H  0.18449473  0.71510061  0.28027046     0.18400
O674        O  0.25953699  0.74256846  0.15630803    -0.63900
H675        H  0.20246591  0.70479936  0.12124598     0.16900
C676        C  0.10975567  0.67296042  0.12231809     0.29100
C677        C  0.08809047  0.64846477  0.09910686    -0.24800
C678        C  0.09779590  0.61529163  0.10596582    -0.24000
C679        C  0.12988355  0.60721376  0.13713336     0.40600
C680        C  0.15109330  0.63173085  0.16033130    -0.26500
O681        O  0.09968457  0.70499812  0.11474340    -0.58400
H682        H  0.06366347  0.65556991  0.07566816     0.16200
O683        O  0.14063841  0.57546505  0.14582388    -0.59800
H684        H  0.17567615  0.62507730  0.18388457     0.14600
H685        H  0.27888256  0.72428532  0.14773917     0.46500
H686        H  0.07541512  0.71004418  0.13496780     0.41900
H687        H  0.16656084  0.57086399  0.12753090     0.45300
H688        H  0.10439094  0.68420673  0.24122144     0.36800
C689        C  0.82332245  0.69033605  0.22373887    -0.27400
C690        C  0.81944182  0.68795310  0.17866892     0.02200
C691        C  0.78978657  0.70828331  0.15715722     0.30200
C692        C  0.76541280  0.73123629  0.18061308    -0.19200
C693        C  0.77005559  0.73492095  0.22607224    -0.28600
C694        C  0.79899060  0.71313914  0.24742359     0.44300
C695        C  0.84482682  0.66279253  0.15500178     0.05500
O696        O  0.78198055  0.70413909  0.11368337    -0.57200
H697        H  0.74146811  0.74497917  0.16273344     0.18400
O698        O  0.80278754  0.71339208  0.29179795    -0.63900
H699        H  0.84526408  0.67418358  0.24085316     0.16900
C700        C  0.87426989  0.67115931  0.12178616     0.29100
C701        C  0.89834331  0.64681560  0.10054965    -0.24800
C702        C  0.89371529  0.61377903  0.11190448    -0.24000
C703        C  0.86451470  0.60567509  0.14598869     0.40600
C704        C  0.84041085  0.63003724  0.16687348    -0.26500
O705        O  0.88124192  0.70321869  0.11132531    -0.58400
H706        H  0.92076264  0.65398650  0.07510774     0.16200
O707        O  0.85880593  0.57405836  0.15920905    -0.59800
H708        H  0.81802705  0.62328618  0.19259246     0.14600
H709        H  0.83354344  0.71916055  0.29799055     0.46500
H710        H  0.86849794  0.70608064  0.08207285     0.41900
H711        H  0.88022337  0.57080610  0.18282270     0.45300
H712        H  0.79165562  0.72463107  0.09962755     0.36800
C713        C  0.13888706  0.63294360  0.84063920    -0.27400
C714        C  0.13452010  0.66580889  0.85191656     0.02200
C715        C  0.10684756  0.67433196  0.88662683     0.30200
C716        C  0.08466477  0.65001723  0.91002353    -0.19200
C717        C  0.08978088  0.61681113  0.89961035    -0.28600
C718        C  0.11728608  0.60858841  0.86407614     0.44300
C719        C  0.15995799  0.69069454  0.82763966     0.05500
O720        O  0.10011459  0.70647024  0.89687399    -0.57200
H721        H  0.06355205  0.65728796  0.93652451     0.18400
O722        O  0.12324044  0.57684684  0.85140510    -0.63900
H723        H  0.15994585  0.62602075  0.81388681     0.16900
C724        C  0.19179165  0.70960385  0.84844742     0.29100
C725        C  0.21682071  0.73197620  0.82480965    -0.24800
C726        C  0.21127211  0.73618240  0.77956314    -0.24000
C727        C  0.18039196  0.71559742  0.75870167     0.40600
C728        C  0.15480471  0.69375396  0.78273923    -0.26500
O729        O  0.20004785  0.70540015  0.89176856    -0.58400
H730        H  0.24216663  0.74458984  0.84226578     0.16200
O731        O  0.17383474  0.71754119  0.71477484    -0.59800
H732        H  0.13100430  0.67884468  0.76605463     0.14600
H733        H  0.14988667  0.56952631  0.86668388     0.46500
H734        H  0.22440721  0.68955072  0.89299461     0.41900
H735        H  0.18569648  0.69697891  0.70262223     0.45300
H736        H  0.11622705  0.71013667  0.92427338     0.36800
C737        C  0.83148911  0.63179856  0.86028661    -0.27400
C738        C  0.84318607  0.66462419  0.86369633     0.02200
C739        C  0.87694357  0.67361396  0.89213669     0.30200
C740        C  0.89872936  0.64970814  0.91637817    -0.19200
C741        C  0.88774549  0.61655750  0.91232811    -0.28600
C742        C  0.85343360  0.60787366  0.88378463     0.44300
C743        C  0.81962180  0.68892500  0.83706022     0.05500
O744        O  0.88766999  0.70581034  0.89760322    -0.57200
H745        H  0.92454831  0.65722506  0.93806984     0.18400
O746        O  0.84063716  0.57609028  0.87849374    -0.63900
H747        H  0.80555762  0.62452827  0.83852984     0.16900
C748        C  0.84177715  0.70895314  0.80741622     0.29100
C749        C  0.81858392  0.73068118  0.78128627    -0.24800
C750        C  0.77275125  0.73382574  0.78457391    -0.24000
C751        C  0.75070098  0.71196991  0.81292173     0.40600
C752        C  0.77409707  0.69031531  0.83899548    -0.26500
O753        O  0.88615806  0.70690123  0.80279018    -0.58400
H754        H  0.83710316  0.74426573  0.75763895     0.16200
O755        O  0.70618502  0.71282088  0.81707326    -0.59800
H756        H  0.75646378  0.67451996  0.86104574     0.14600
H757        H  0.85576950  0.56847738  0.85187116     0.46500
H758        H  0.89117674  0.68819850  0.78301665     0.41900
H759        H  0.69556318  0.69260154  0.80298194     0.45300
H760        H  0.91764798  0.70808737  0.88588006     0.36800
C761        C  0.13573050  0.29580431  0.80452460    -0.27400
C762        C  0.15466349  0.32143093  0.82769817     0.02200
C763        C  0.20004130  0.32331841  0.83084615     0.30200
C764        C  0.22603708  0.30150975  0.80774196    -0.19200
C765        C  0.20779721  0.27777399  0.77979997    -0.28600
C766        C  0.16176216  0.27334895  0.78184902     0.44300
C767        C  0.12735768  0.34604311  0.84945780     0.05500
O768        O  0.21928112  0.34644838  0.85661737    -0.57200
H769        H  0.26102325  0.30438816  0.80967559     0.18400
O770        O  0.14160606  0.24691419  0.76361773    -0.63900
H771        H  0.10061353  0.29307376  0.80424491     0.16900
C772        C  0.12226888  0.37721987  0.83139241     0.29100
C773        C  0.10055225  0.40158651  0.85476967    -0.24800
C774        C  0.08365807  0.39529258  0.89638854    -0.24000
C775        C  0.08796486  0.36351978  0.91378991     0.40600
C776        C  0.10965241  0.33927988  0.89025513    -0.26500
O777        O  0.13825725  0.38397137  0.79078761    -0.58400
H778        H  0.09720386  0.42550052  0.84033730     0.16200
O779        O  0.07201727  0.35591299  0.95413745    -0.59800
H780        H  0.11379341  0.31534576  0.90444399     0.14600
H781        H  0.13768072  0.23113575  0.78762987     0.46500
H782        H  0.16738778  0.39372567  0.79564697     0.41900
H783        H  0.09601233  0.36099566  0.97453317     0.45300
H784        H  0.22702375  0.36454920  0.83678742     0.36800
C785        C  0.78581595  0.32470872  0.17734525    -0.27400
C786        C  0.83061317  0.31876119  0.17745020     0.02200
C787        C  0.84648625  0.29070289  0.19803043     0.30200
C788        C  0.81788680  0.27056191  0.22145162    -0.19200
C789        C  0.77289321  0.27797824  0.22496438    -0.28600
C790        C  0.75700651  0.30404427  0.19909864     0.44300
C791        C  0.85983430  0.34290010  0.15680100     0.05500
O792        O  0.89012013  0.28351175  0.19695937    -0.57200
H793        H  0.83147862  0.24911617  0.23647499     0.18400
O794        O  0.71335123  0.31102253  0.19748526    -0.63900
H795        H  0.77302815  0.34573311  0.16038173     0.16900
C796        C  0.88258865  0.33583992  0.11828771     0.29100
C797        C  0.90550870  0.36058380  0.09668694    -0.24800
C798        C  0.90584685  0.39274263  0.11282988    -0.24000
C799        C  0.88452439  0.39917865  0.15271477     0.40600
C800        C  0.86151383  0.37448682  0.17392448    -0.26500
O801        O  0.88126429  0.30517654  0.10063680    -0.58400
H802        H  0.92178862  0.35473453  0.06644826     0.16200
O803        O  0.88498450  0.42964599  0.17103014    -0.59800
H804        H  0.84415129  0.38016221  0.20365408     0.14600
H805        H  0.70365825  0.30344889  0.16851684     0.46500
H806        H  0.85406323  0.30452973  0.08337631     0.41900
H807        H  0.91302261  0.43097499  0.18684937     0.45300
H808        H  0.89312661  0.26579502  0.17525610     0.36800
C809        C  0.79125736  0.31117862  0.84902936    -0.27400
C810        C  0.82381049  0.32851363  0.82748263     0.02200
C811        C  0.82966521  0.32447820  0.78286283     0.30200
C812        C  0.80350539  0.30256855  0.76028282    -0.19200
C813        C  0.77110500  0.28373357  0.78143294    -0.28600
C814        C  0.76417767  0.28957351  0.82661732     0.44300
C815        C  0.84903212  0.35283481  0.85148493     0.05500
O816        O  0.86121521  0.34163798  0.76110480    -0.57200
H817        H  0.80910933  0.29973940  0.72578895     0.18400
O818        O  0.73039751  0.27574004  0.84927287    -0.63900
H819        H  0.78577584  0.31529216  0.88335281     0.16900
C820        C  0.83430994  0.38509061  0.85371205     0.29100
C821        C  0.85676137  0.40767888  0.87893670    -0.24800
C822        C  0.89458004  0.39866755  0.90176432    -0.24000
C823        C  0.91010325  0.36636477  0.89803470     0.40600
C824        C  0.88695380  0.34361568  0.87335065    -0.26500
O825        O  0.79729839  0.39447768  0.83223143    -0.58400
H826        H  0.84413272  0.43228651  0.88082135     0.16200
O827        O  0.94772165  0.35670178  0.91818158    -0.59800
H828        H  0.89853728  0.31872573  0.87127339     0.14600
H829        H  0.71071940  0.29386415  0.85763469     0.46500
H830        H  0.80769161  0.40374747  0.80436505     0.41900
H831        H  0.97146922  0.36201744  0.89747196     0.45300
H832        H  0.84666962  0.36188951  0.75132329     0.36800
C833        C  0.65185714  0.63278922  0.65809818    -0.27400
C834        C  0.64280631  0.66578790  0.65143794     0.02200
C835        C  0.61023145  0.67461115  0.62164652     0.30200
C836        C  0.58727643  0.65041114  0.59892743    -0.19200
C837        C  0.59601018  0.61711147  0.60571343    -0.28600
C838        C  0.62903001  0.60859379  0.63576878     0.44300
C839        C  0.66791421  0.69047225  0.67606982     0.05500
O840        O  0.60187478  0.70682946  0.61330595    -0.57200
H841        H  0.56264393  0.65785068  0.57589286     0.18400
O842        O  0.63915592  0.57668877  0.64425246    -0.63900
H843        H  0.67672205  0.62567523  0.68111582     0.16900
C844        C  0.64725103  0.71162280  0.70536755     0.29100
C845        C  0.67189897  0.73325352  0.73041490    -0.24800
C846        C  0.71794806  0.73498338  0.72669204    -0.24000
C847        C  0.73832456  0.71256219  0.69779586     0.40600
C848        C  0.71340324  0.69086111  0.67302260    -0.26500
O849        O  0.60295435  0.71037035  0.71122989    -0.58400
H850        H  0.65426432  0.74728504  0.75429634     0.16200
O851        O  0.78291891  0.71117521  0.69438241    -0.59800
H852        H  0.72984546  0.67398647  0.65143038     0.14600
H853        H  0.66527192  0.57196076  0.62629300     0.46500
H854        H  0.59827343  0.69425129  0.73471059     0.41900
H855        H  0.78995889  0.71739221  0.66408075     0.45300
H856        H  0.57306169  0.71128627  0.62668894     0.36800
C857        C  0.32069172  0.36961017  0.60996282    -0.27400
C858        C  0.34050439  0.34809955  0.63936820     0.02200
C859        C  0.38594406  0.35001105  0.64583776     0.30200
C860        C  0.41055367  0.37343442  0.62373030    -0.19200
C861        C  0.39019582  0.39584862  0.59622086    -0.28600
C862        C  0.34515010  0.39361604  0.58888863     0.44300
C863        C  0.31341206  0.32512435  0.66507662     0.05500
O864        O  0.40636473  0.32996222  0.67495159    -0.57200
H865        H  0.44531287  0.37501107  0.62950351     0.18400
O866        O  0.32475731  0.41501794  0.56148478    -0.63900
H867        H  0.28603331  0.36811869  0.60378297     0.16900
C868        C  0.27703300  0.33621748  0.68850024     0.29100
C869        C  0.25399959  0.31489158  0.71533371    -0.24800
C870        C  0.26673508  0.28191951  0.72082728    -0.24000
C871        C  0.30105348  0.27047400  0.69375286     0.40600
C872        C  0.32446761  0.29205535  0.66721854    -0.26500
O873        O  0.26458022  0.36830723  0.68676913    -0.58400
H874        H  0.22534806  0.32476488  0.73090012     0.16200
O875        O  0.31313787  0.23835178  0.69416371    -0.59800
H876        H  0.35146724  0.28281493  0.64811533     0.14600
H877        H  0.32422746  0.40393049  0.53289860     0.46500
H878        H  0.23759127  0.36857425  0.66913489     0.41900
H879        H  0.30371555  0.22947889  0.66575561     0.45300
H880        H  0.40289678  0.34085209  0.70348579     0.36800
C881        C  0.63326633  0.34612833  0.40774400    -0.27400
C882        C  0.63953505  0.34775098  0.36276176     0.02200
C883        C  0.62035151  0.37327494  0.33905257     0.30200
C884        C  0.59709408  0.39769215  0.36061527    -0.19200
C885        C  0.59190009  0.39667283  0.40571508    -0.28600
C886        C  0.60924842  0.37027391  0.42927477     0.44300
C887        C  0.66822322  0.32408572  0.34062209     0.05500
O888        O  0.62347318  0.37403047  0.29464214    -0.57200
H889        H  0.58284762  0.41736294  0.34202342     0.18400
O890        O  0.60503476  0.36890286  0.47355285    -0.63900
H891        H  0.64797362  0.32662555  0.42627655     0.16900
C892        C  0.70561155  0.33498484  0.31895249     0.29100
C893        C  0.72942546  0.31362090  0.29301410    -0.24800
C894        C  0.71610014  0.28090648  0.28660369    -0.24000
C895        C  0.68246131  0.26911239  0.31435475     0.40600
C896        C  0.65833239  0.29083141  0.34032559    -0.26500
O897        O  0.71905228  0.36674705  0.32267260    -0.58400
H898        H  0.75863301  0.32326846  0.27827551     0.16200
O899        O  0.67301229  0.23646441  0.31618791    -0.59800
H900        H  0.63110604  0.28180837  0.35926318     0.14600
H901        H  0.58099791  0.35325803  0.47898200     0.46500
H902        H  0.73536284  0.36773769  0.35035793     0.41900
H903        H  0.64160856  0.23420296  0.30939387     0.45300
H904        H  0.64380213  0.39211197  0.28792660     0.36800
C905        C  0.32678997  0.69159171  0.29301656    -0.27400
C906        C  0.31676252  0.68912700  0.33711680     0.02200
C907        C  0.28354931  0.70862239  0.35449712     0.30200
C908        C  0.26175311  0.73102861  0.32802357    -0.19200
C909        C  0.27283680  0.73512591  0.28360101    -0.28600
C910        C  0.30490143  0.71370829  0.26624717     0.44300
C911        C  0.33955972  0.66452270  0.36369624     0.05500
O912        O  0.27102628  0.70510038  0.39699167    -0.57200
H913        H  0.23484188  0.74406157  0.34253415     0.18400
O914        O  0.31433202  0.71370803  0.22271590    -0.63900
H915        H  0.35150190  0.67587877  0.27901804     0.16900
C916        C  0.33529960  0.63128365  0.35389591     0.29100
C917        C  0.35964365  0.60824409  0.37654634    -0.24800
C918        C  0.38843021  0.61761576  0.40981764    -0.24000
C919        C  0.39189350  0.65108956  0.42029651     0.40600
C920        C  0.36735075  0.67419259  0.39736444    -0.26500
O921        O  0.30746097  0.62107684  0.32192151    -0.58400
H922        H  0.35588554  0.58286190  0.36767299     0.16200
O923        O  0.41858505  0.66154085  0.45309817    -0.59800
H924        H  0.37071808  0.69979441  0.40525546     0.14600
H925        H  0.34580008  0.71889700  0.22013651     0.46500
H926        H  0.27915791  0.61745241  0.33675528     0.41900
H927        H  0.44530134  0.66961960  0.43846408     0.45300
H928        H  0.24609394  0.68973346  0.39634416     0.36800
C929        C  0.64171817  0.63440710  0.34498133    -0.27400
C930        C  0.63648668  0.66720417  0.35616490     0.02200
C931        C  0.60811391  0.67558863  0.39035053     0.30200
C932        C  0.58527949  0.65111610  0.41265273    -0.19200
C933        C  0.59093006  0.61802031  0.40192308    -0.28600
C934        C  0.61977939  0.60993825  0.36755444     0.44300
C935        C  0.66095985  0.69204369  0.33126191     0.05500
O936        O  0.60121370  0.70766461  0.40094092    -0.57200
H937        H  0.56329309  0.65817450  0.43855427     0.18400
O938        O  0.62650230  0.57824527  0.35503301    -0.63900
H939        H  0.66354397  0.62761997  0.31877758     0.16900
C940        C  0.69052799  0.71308462  0.35164318     0.29100
C941        C  0.71623397  0.73415047  0.32674786    -0.24800
C942        C  0.71186669  0.73613341  0.28107226    -0.24000
C943        C  0.68262074  0.71394143  0.26099537     0.40600
C944        C  0.65770602  0.69243027  0.28599990    -0.26500
O945        O  0.69686976  0.71151644  0.39564177    -0.58400
H946        H  0.74063688  0.74798642  0.34390296     0.16200
O947        O  0.67914049  0.71246951  0.21663956    -0.59800
H948        H  0.63587938  0.67564778  0.26977877     0.14600
H949        H  0.65492296  0.57201909  0.36784022     0.46500
H950        H  0.68699013  0.73285621  0.40718206     0.41900
H951        H  0.64871095  0.71874283  0.20981361     0.45300
H952        H  0.61297283  0.71034618  0.43066419     0.36800
C953        C  0.67268846  0.37660049  0.61616594    -0.27400
C954        C  0.65150151  0.35090928  0.63743606     0.02200
C955        C  0.60598850  0.34761551  0.63385314     0.30200
C956        C  0.58203487  0.37057730  0.61054781    -0.19200
C957        C  0.60296346  0.39718111  0.59108482    -0.28600
C958        C  0.64871596  0.39969240  0.59305976     0.44300
C959        C  0.67649652  0.32892631  0.66579162     0.05500
O960        O  0.58453143  0.32260591  0.65422002    -0.57200
H961        H  0.54687455  0.36833535  0.60920879     0.18400
O962        O  0.67020452  0.42494598  0.57323830    -0.63900
H963        H  0.70769800  0.37935520  0.61872722     0.16900
C964        C  0.71044369  0.30956865  0.64958251     0.29100
C965        C  0.73200283  0.28787988  0.67709733    -0.24800
C966        C  0.72003582  0.28459163  0.72136129    -0.24000
C967        C  0.68905988  0.30717868  0.73791207     0.39400
C968        C  0.66672650  0.32807635  0.71004431    -0.26500
O969        O  0.72200488  0.31104461  0.60660257    -0.58400
H970        H  0.75893346  0.27445852  0.66329300     0.16200
O971        O  0.67880125  0.30794062  0.78117459    -0.59800
H972        H  0.64179861  0.34399804  0.72321593     0.14600
H973        H  0.67129246  0.41904564  0.54204911     0.46500
H974        H  0.74996708  0.32315555  0.60590914     0.41900
H975        H  0.69189877  0.32839718  0.79230510     0.45300
H976        H  0.58643225  0.30392887  0.63387581     0.36800
C977        C  0.33425489  0.63262118  0.65766621    -0.27400
C978        C  0.34321755  0.66553739  0.65045362     0.02200
C979        C  0.37584462  0.67432740  0.62061757     0.30200
C980        C  0.39964952  0.65005229  0.59889101    -0.19200
C981        C  0.39095173  0.61677156  0.60609726    -0.28600
C982        C  0.35721734  0.60834930  0.63555039     0.44300
C983        C  0.31843023  0.69024828  0.67506383     0.05500
O984        O  0.38592537  0.70651462  0.61404921    -0.57200
H985        H  0.42512286  0.65740815  0.57657482     0.18400
O986        O  0.34646132  0.57648204  0.64353774    -0.63900
H987        H  0.30895712  0.62567993  0.68045925     0.16900
C988        C  0.28832408  0.71058755  0.65441201     0.29100
C989        C  0.26324006  0.73241291  0.67881052    -0.24800
C990        C  0.26851698  0.73550184  0.72430291    -0.24000
C991        C  0.29794418  0.71361870  0.74473745     0.40600
C992        C  0.32268384  0.69169428  0.72013205    -0.26500
O993        O  0.28125603  0.70785768  0.61064412    -0.58400
H994        H  0.23852909  0.74581066  0.66154852     0.16200
O995        O  0.30414684  0.71447036  0.78877261    -0.59800
H996        H  0.34530517  0.67558675  0.73642757     0.14600
H997        H  0.32051556  0.57212130  0.62532252     0.46500
H998        H  0.29616600  0.72688911  0.59752593     0.41900
H999        H  0.29109625  0.69402719  0.79997715     0.45300
H1000       H  0.37542110  0.71160903  0.58444057     0.36800
C1001       C  0.30107391  0.29797062  0.35655385    -0.27400
C1002       C  0.32551360  0.32222064  0.33608378     0.02200
C1003       C  0.32752174  0.32321068  0.29081834     0.30200
C1004       C  0.30338776  0.30104263  0.26648376    -0.19200
C1005       C  0.27478504  0.27827724  0.28629375    -0.28600
C1006       C  0.27616757  0.27576881  0.33235469     0.44300
C1007       C  0.34785933  0.34718534  0.36204656     0.05500
O1008       O  0.35270873  0.34602210  0.27005712    -0.57200
H1009       H  0.30508171  0.30278602  0.23145001     0.18400
O1010       O  0.25691149  0.25037345  0.35399658    -0.63900
H1011       H  0.30122432  0.29628342  0.39162290     0.16900
C1012       C  0.32701443  0.37684528  0.37132611     0.29100
C1013       C  0.34915970  0.40116437  0.39413141    -0.24800
C1014       C  0.39229482  0.39631905  0.40789307    -0.24000
C1015       C  0.41301964  0.36633466  0.39860718     0.40600
C1016       C  0.39066367  0.34200496  0.37590901    -0.26500
O1017       O  0.28486161  0.38212433  0.35843312    -0.58400
H1018       H  0.33249760  0.42385189  0.40112096     0.16200
O1019       O  0.45538931  0.36079652  0.41059953    -0.59800
H1020       H  0.40697769  0.31925815  0.36844821     0.14600
H1021       H  0.23670456  0.26036895  0.37538904     0.46500
H1022       H  0.28721411  0.39234393  0.32939808     0.41900
H1023       H  0.47332667  0.36889656  0.38607227     0.45300
H1024       H  0.33285630  0.36456711  0.26427459     0.36800
loop_ 
_geom_bond_atom_site_label_1 
_geom_bond_atom_site_label_2 
_geom_bond_distance 
_geom_bond_site_symmetry_2 
_ccdc_geom_bond_type 
O1          Zr13   2.445       .  S
O1            C3   1.288       .  A
O2          Zr39   2.408       .  S
O2            C3   1.282       .  A
C3          C861   1.466       .  S
O4          Zr16   2.429       .  S
O4            C6   1.287       .  A
O5          Zr40   2.429       .  S
O5            C6   1.288       .  A
C6          C918   1.489       .  S
O7          Zr16   2.446       .  S
O7            C9   1.289       .  A
O8          Zr39   2.415       .  S
O8            C9   1.285       .  A
C9         C1014   1.480       .  S
O10         Zr13   2.436       .  S
O10          C12   1.287       .  A
O11         Zr40   2.434       .  S
O11          C12   1.289       .  A
C12         C981   1.492       .  S
Zr13         O14   2.434       .  S
Zr13         O15   2.434       .  S
Zr13         O19   2.366       .  S
Zr13         O20   2.369       .  S
Zr13         O43   2.376       .  S
Zr13         O45   2.368       .  S
O14          H57   0.990       .  S
O15          H56   0.990       .  S
O15          H60   0.990       .  S
Zr16         O17   2.435       .  S
Zr16         O18   2.435       .  S
Zr16         O20   2.368       .  S
Zr16         O19   2.365       .  S
Zr16         O44   2.368       .  S
Zr16         O46   2.374       .  S
O17          H58   0.990       .  S
O17          H61   0.991       .  S
O18          H51   0.990       .  S
O19         Zr39   2.375       .  S
O20         Zr40   2.391       .  S
O20          H47   0.968       .  S
O21         Zr33   2.428       .  S
O21          C23   1.285       .  A
O22         Zr40   2.443       .  S
O22          C23   1.290       .  A
C23         C837   1.495       .  S
O24         Zr36   2.448       .  S
O24          C26   1.290       .  A
O25         Zr39   2.401       .  S
O25          C26   1.282       .  A
C26         C885   1.470       .  S
O27         Zr36   2.427       .  S
O27          C29   1.285       .  A
O28         Zr40   2.438       .  S
O28          C29   1.290       .  A
C29         C933   1.491       .  S
O30         Zr33   2.434       .  S
O30          C32   1.286       .  A
O31         Zr39   2.413       .  S
O31          C32   1.284       .  A
C32         C957   1.469       .  S
Zr33         O34   2.437       .  S
Zr33         O35   2.435       .  S
Zr33         O41   2.368       .  S
Zr33         O42   2.363       .  S
Zr33         O45   2.373       .  S
Zr33         O43   2.374       .  S
O34          H54   0.990       .  S
O34          H59   0.990       .  S
O35          H55   0.990       .  S
Zr36         O37   2.435       .  S
Zr36         O38   2.435       .  S
Zr36         O42   2.363       .  S
Zr36         O41   2.378       .  S
Zr36         O46   2.371       .  S
Zr36         O44   2.364       .  S
O37          H53   0.990       .  S
O38          H52   0.990       .  S
O38          H62   0.990       .  S
Zr39         O42   2.373       .  S
Zr39         O44   2.382       .  S
Zr39         O45   2.380       .  S
Zr40         O41   2.389       .  S
Zr40         O43   2.385       .  S
Zr40         O46   2.388       .  S
O41          H49   0.966       .  S
O44          H48   0.966       .  S
O45          H50   0.966       .  S
O63         Zr75   2.416       .  S
O63          C65   1.284       .  A
O64        Zr101   2.425   1_556  S
O64          C65   1.286       .  A
C65         C822   1.480       .  S
O66         Zr78   2.429       .  S
O66          C68   1.285       .  A
O67        Zr102   2.457   1_456  S
O67          C68   1.293       .  A
C68         C717   1.500       .  S
O69         Zr78   2.454       .  S
O69          C71   1.291       .  A
O70        Zr101   2.405   1_456  S
O70          C71   1.283       .  A
C71         C774   1.485       .  S
O72         Zr75   2.419       .  S
O72          C74   1.283       .  A
O73        Zr102   2.443   1_556  S
O73          C74   1.291       .  A
C74         C741   1.492       .  S
Zr75         O76   2.434       .  S
Zr75         O77   2.435       .  S
Zr75         O81   2.364       .  S
Zr75         O82   2.364       .  S
Zr75        O105   2.365   1_556  S
Zr75        O107   2.369   1_556  S
O76         H119   0.990       .  S
O77         H118   0.990       .  S
O77         H122   0.990       .  S
Zr78         O79   2.435       .  S
Zr78         O80   2.433       .  S
Zr78         O82   2.371   1_455  S
Zr78         O81   2.366   1_455  S
Zr78        O106   2.364       .  S
Zr78        O108   2.376   1_556  S
O79         H120   0.990       .  S
O79         H123   0.990       .  S
O80         H113   0.990       .  S
O81        Zr101   2.377   1_556  S
O82        Zr102   2.386   1_556  S
O82         H109   0.967       .  S
O83         Zr95   2.429       .  S
O83          C85   1.286       .  A
O84        Zr102   2.445       .  S
O84          C85   1.292       .  A
C85         C702   1.494       .  S
O86         Zr98   2.447       .  S
O86          C88   1.290       .  A
O87        Zr101   2.415   1_455  S
O87          C88   1.285       .  A
C88         C654   1.476       .  S
O89         Zr98   2.437       .  S
O89          C91   1.288       .  A
O90        Zr102   2.432   1_455  S
O90          C91   1.289       .  A
C91         C678   1.492       .  S
O92         Zr95   2.444       .  S
O92          C94   1.288       .  A
O93        Zr101   2.423       .  S
O93          C94   1.286       .  A
C94         C798   1.492       .  S
Zr95         O96   2.438       .  S
Zr95         O97   2.434       .  S
Zr95        O103   2.372       .  S
Zr95        O104   2.363       .  S
Zr95        O107   2.367       .  S
Zr95        O105   2.377       .  S
O96         H116   0.990       .  S
O96         H121   0.990       .  S
O97         H117   0.990       .  S
Zr98         O99   2.434       .  S
Zr98        O100   2.434       .  S
Zr98        O104   2.370   1_455  S
Zr98        O103   2.374   1_455  S
Zr98        O108   2.373       .  S
Zr98        O106   2.366   1_554  S
O99         H115   0.990       .  S
O100        H114   0.990       .  S
O100        H124   0.990       .  S
Zr101       O104   2.377       .  S
Zr101       O106   2.385   1_654  S
Zr101       O107   2.379       .  S
Zr102       O103   2.394       .  S
Zr102       O105   2.386       .  S
Zr102       O108   2.389   1_655  S
O103        H111   0.966   1_655  S
O106        H110   0.966       .  S
O107        H112   0.966       .  S
C125        C597   1.561       .  S
C125        C621   1.557       .  S
C125        C813   1.555       .  S
C125        C966   1.560       .  S
O126       Zr138   2.426       .  S
O126        C128   1.285       .  A
O127       Zr164   2.425   1_556  S
O127        C128   1.287       .  A
C128        C630   1.488       .  S
O129       Zr141   2.430   1_565  S
O129        C131   1.286       .  A
O130       Zr165   2.435       .  S
O130        C131   1.289       .  A
C131        C573   1.491       .  S
O132       Zr141   2.447       .  S
O132        C134   1.290       .  A
O133       Zr164   2.420   1_556  S
O133        C134   1.285       .  A
C134        C534   1.492       .  S
O135       Zr138   2.429   1_565  S
O135        C137   1.286       .  A
O136       Zr165   2.424       .  S
O136        C137   1.287       .  A
C137        C501   1.485       .  S
Zr138       O139   2.434       .  S
Zr138       O140   2.437       .  S
Zr138       O144   2.371       .  S
Zr138       O145   2.368   1_545  S
Zr138       O168   2.370   1_545  S
Zr138       O170   2.369       .  S
O139        H182   0.990       .  S
O140        H181   0.990   1_545  S
O140        H185   0.990       .  S
Zr141       O142   2.436       .  S
Zr141       O143   2.434       .  S
Zr141       O145   2.372   1_545  S
Zr141       O144   2.365       .  S
Zr141       O169   2.364   1_556  S
Zr141       O171   2.374   1_546  S
O142        H183   0.990       .  S
O142        H186   0.990       .  S
O143        H176   0.990       .  S
O144       Zr164   2.379   1_556  S
O145       Zr165   2.390       .  S
O145        H172   0.967       .  S
O146       Zr158   2.448   1_565  S
O146        C148   1.291       .  A
O147       Zr165   2.434   1_554  S
O147        C148   1.288       .  A
C148        C549   1.496       .  S
O149       Zr161   2.426       .  S
O149        C151   1.285       .  A
O150       Zr164   2.421       .  S
O150        C151   1.287       .  A
C151        C462   1.486       .  S
O152       Zr161   2.430   1_565  S
O152        C154   1.287       .  A
O153       Zr165   2.436   1_554  S
O153        C154   1.288       .  A
C154        C477   1.494       .  S
O155       Zr158   2.457       .  S
O155        C157   1.292       .  A
O156       Zr164   2.406       .  S
O156        C157   1.283       .  A
C157        C438   1.491       .  S
Zr158       O159   2.435       .  S
Zr158       O160   2.435       .  S
Zr158       O166   2.377   1_545  S
Zr158       O167   2.368       .  S
Zr158       O170   2.368   1_554  S
Zr158       O168   2.373   1_544  S
O159        H179   0.990       .  S
O159        H184   0.990       .  S
O160        H180   0.990       .  S
Zr161       O162   2.433       .  S
Zr161       O163   2.437       .  S
Zr161       O167   2.367       .  S
Zr161       O166   2.365   1_545  S
Zr161       O171   2.366   1_545  S
Zr161       O169   2.370       .  S
O162        H178   0.990       .  S
O163        H177   0.990       .  S
O163        H187   0.990   1_545  S
Zr164       O167   2.380       .  S
Zr164       O169   2.379       .  S
Zr164       O170   2.387   1_554  S
Zr165       O166   2.385   1_556  S
Zr165       O168   2.388       .  S
Zr165       O171   2.382   1_556  S
O166        H174   0.966       .  S
O169        H173   0.967       .  S
O170        H175   0.967       .  S
C188        C414   1.562       .  S
C188        C582   1.563       .  S
C188        C726   1.564       .  S
C188        C990   1.559       .  S
O189       Zr201   2.445       .  S
O189        C191   1.288       .  A
O190       Zr227   2.410       .  S
O190        C191   1.283       .  A
C191        C390   1.468       .  S
O192       Zr204   2.433   1_565  S
O192        C194   1.287       .  A
O193       Zr228   2.440       .  S
O193        C194   1.289       .  A
C194        C309   1.494       .  S
O195       Zr204   2.426       .  S
O195        C197   1.285       .  A
O196       Zr227   2.425       .  S
O196        C197   1.287       .  A
C197        C606   1.483       .  S
O198       Zr201   2.425   1_565  S
O198        C200   1.286       .  A
O199       Zr228   2.430       .  S
O199        C200   1.287       .  A
C200        C357   1.487       .  S
Zr201       O202   2.434       .  S
Zr201       O203   2.434       .  S
Zr201       O207   2.365       .  S
Zr201       O208   2.370   1_545  S
Zr201       O231   2.374   1_545  S
Zr201       O233   2.363       .  S
O202        H245   0.990       .  S
O203        H244   0.990       .  S
O203        H248   0.991   1_545  S
Zr204       O205   2.435       .  S
Zr204       O206   2.436       .  S
Zr204       O208   2.368   1_545  S
Zr204       O207   2.371       .  S
Zr204       O232   2.371       .  S
Zr204       O234   2.366   1_645  S
O205        H246   0.990   1_545  S
O205        H249   0.990   1_545  S
O206        H239   0.990       .  S
O207       Zr227   2.375       .  S
O208       Zr228   2.385       .  S
O208        H235   0.964       .  S
O209       Zr221   2.445   1_565  S
O209        C211   1.288       .  A
O210       Zr228   2.434   1_455  S
O210        C211   1.289       .  A
C211        C333   1.497       .  S
O212       Zr224   2.457       .  S
O212        C214   1.291       .  A
O213       Zr227   2.405   1_455  S
O213        C214   1.282       .  A
C214        C261   1.473       .  S
O215       Zr224   2.434   1_565  S
O215        C217   1.287       .  A
O216       Zr228   2.428   1_455  S
O216        C217   1.288       .  A
C217        C405   1.487       .  S
O218       Zr221   2.451       .  S
O218        C220   1.291       .  A
O219       Zr227   2.413   1_455  S
O219        C220   1.284       .  A
C220        C285   1.472       .  S
Zr221       O222   2.436       .  S
Zr221       O223   2.434       .  S
Zr221       O229   2.373   1_545  S
Zr221       O230   2.372       .  S
Zr221       O233   2.371   1_455  S
Zr221       O231   2.369   1_445  S
O222        H242   0.990   1_545  S
O222        H247   0.990       .  S
O223        H243   0.990       .  S
Zr224       O225   2.434       .  S
Zr224       O226   2.436       .  S
Zr224       O230   2.361       .  S
Zr224       O229   2.374   1_545  S
Zr224       O234   2.380   1_545  S
Zr224       O232   2.367   1_455  S
O225        H241   0.990       .  S
O226        H240   0.989       .  S
O226        H250   0.991       .  S
Zr227       O230   2.378   1_655  S
Zr227       O232   2.379       .  S
Zr227       O233   2.383       .  S
Zr228       O229   2.391   1_655  S
Zr228       O231   2.385       .  S
Zr228       O234   2.386   1_655  S
O229        H237   0.967       .  S
O232        H236   0.968   1_655  S
O233        H238   0.967       .  S
C251        C366   1.559       .  S
C251        C558   1.563       .  S
C251        C693   1.563       .  S
C251        C942   1.560       .  S
C252        C294   1.566       .  S
C252        C453   1.560       .  S
C252        C645   1.571       .  S
C252       C1005   1.563       .  S
C253        C381   1.564       .  S
C253        C429   1.556       .  S
C253        C789   1.566       .  S
C253        C894   1.563       .  S
C254        C342   1.567       .  S
C254        C486   1.562       .  S
C254        C669   1.566       .  S
C254        C909   1.564       .  S
C255        C270   1.563       .  S
C255        C525   1.560       .  S
C255        C765   1.562       .  S
C255        C870   1.566       .  S
C256        C318   1.566       .  S
C256        C510   1.562       .  S
C256        C750   1.558       .  S
C256        C846   1.568       .  S
C257        C258   1.404       .  A
C257        C262   1.400       .  A
C257        H267   1.083       .  S
C258        C263   1.485       .  S
C258        C259   1.412       .  A
C259        C260   1.398       .  A
C259        O264   1.372       .  S
C260        C261   1.401       .  A
C260        H265   1.084       .  S
C261        C262   1.410       .  A
C262        O266   1.372       .  S
C263        C268   1.405       .  A
C263        C272   1.397       .  A
O264        H280   0.992       .  S
O266        H277   0.992       .  S
C268        C269   1.404       .  A
C268        O273   1.372       .  S
C269        C270   1.418       .  A
C269        H274   1.083       .  S
C270        C271   1.429       .  A
C271        C272   1.395       .  A
C271        O275   1.372       .  S
C272        H276   1.084       .  S
O273        H278   0.992       .  S
O275        H279   0.992       .  S
C281        C282   1.405       .  A
C281        C286   1.402       .  A
C281        H291   1.083       .  S
C282        C287   1.486       .  S
C282        C283   1.412       .  A
C283        C284   1.397       .  A
C283        O288   1.372       .  S
C284        C285   1.400       .  A
C284        H289   1.084       .  S
C285        C286   1.409       .  A
C286        O290   1.372       .  S
C287        C292   1.405       .  A
C287        C296   1.395       .  A
O288        H304   0.991       .  S
O290        H301   0.992       .  S
C292        C293   1.406       .  A
C292        O297   1.371       .  S
C293        C294   1.418       .  A
C293        H298   1.083       .  S
C294        C295   1.431       .  A
C295        C296   1.394       .  A
C295        O299   1.371       .  S
C296        H300   1.084       .  S
O297        H302   0.992       .  S
O299        H303   0.991       .  S
C305        C306   1.404       .  A
C305        C310   1.405       .  A
C305        H315   1.084       .  S
C306        C311   1.483       .  S
C306        C307   1.405       .  A
C307        C308   1.396       .  A
C307        O312   1.372       .  S
C308        C309   1.410       .  A
C308        H313   1.083       .  S
C309        C310   1.416       .  A
C310        O314   1.371       .  S
C311        C316   1.402       .  A
C311        C320   1.398       .  A
O312        H328   0.992       .  S
O314        H325   0.992       .  S
C316        C317   1.400       .  A
C316        O321   1.372       .  S
C317        C318   1.418       .  A
C317        H322   1.079       .  S
C318        C319   1.424       .  A
C319        C320   1.401       .  A
C319        O323   1.372       .  S
C320        H324   1.084       .  S
O321        H326   0.992       .  S
O323        H327   0.992       .  S
C329        C330   1.398       .  A
C329        C334   1.399       .  A
C329        H339   1.084       .  S
C330        C335   1.481       .  S
C330        C331   1.406       .  A
C331        C332   1.405       .  A
C331        O336   1.371       .  S
C332        C333   1.411       .  A
C332        H337   1.083       .  S
C333        C334   1.419       .  A
C334        O338   1.371       .  S
C335        C340   1.401       .  A
C335        C344   1.398       .  A
O336        H352   0.992       .  S
O338        H349   0.992       .  S
C340        C341   1.400       .  A
C340        O345   1.372       .  S
C341        C342   1.420       .  A
C341        H346   1.080       .  S
C342        C343   1.423       .  A
C343        C344   1.403       .  A
C343        O347   1.372       .  S
C344        H348   1.084       .  S
O345        H350   0.992       .  S
O347        H351   0.992       .  S
C353        C354   1.404       .  A
C353        C358   1.401       .  A
C353        H363   1.083       .  S
C354        C359   1.482       .  S
C354        C355   1.407       .  A
C355        C356   1.394       .  A
C355        O360   1.372       .  S
C356        C357   1.409       .  A
C356        H361   1.083       .  S
C357        C358   1.413       .  A
C358        O362   1.371       .  S
C359        C364   1.405       .  A
C359        C368   1.399       .  A
O360        H376   0.992       .  S
O362        H373   0.992       .  S
C364        C365   1.397       .  A
C364        O369   1.372       .  S
C365        C366   1.416       .  A
C365        H370   1.079       .  S
C366        C367   1.423       .  A
C367        C368   1.398       .  A
C367        O371   1.374       .  S
C368        H372   1.084       .  S
O369        H374   0.992       .  S
O371        H375   0.992       .  S
C377        C378   1.396       .  A
C377        C382   1.396       .  A
C377        H387   1.084       .  S
C378        C383   1.482       .  S
C378        C379   1.404       .  A
C379        C380   1.400       .  A
C379        O384   1.371       .  S
C380        C381   1.416       .  A
C380        H385   1.083       .  S
C381        C382   1.431       .  A
C382        O386   1.373       .  S
C383        C388   1.411       .  A
C383        C392   1.404       .  A
O384        H400   0.992       .  S
O386        H397   0.992       .  S
C388        C389   1.399       .  A
C388        O393   1.373       .  S
C389        C390   1.400       .  A
C389        H394   1.084       .  S
C390        C391   1.408       .  A
C391        C392   1.399       .  A
C391        O395   1.372       .  S
C392        H396   1.083       .  S
O393        H398   0.992       .  S
O395        H399   0.992       .  S
C401        C402   1.400       .  A
C401        C406   1.396       .  A
C401        H411   1.084       .  S
C402        C407   1.481       .  S
C402        C403   1.408       .  A
C403        C404   1.401       .  A
C403        O408   1.372       .  S
C404        C405   1.408       .  A
C404        H409   1.083       .  S
C405        C406   1.416       .  A
C406        O410   1.372       .  S
C407        C412   1.403       .  A
C407        C416   1.398       .  A
O408        H424   0.992       .  S
O410        H421   0.992       .  S
C412        C413   1.396       .  A
C412        O417   1.372       .  S
C413        C414   1.416       .  A
C413        H418   1.081       .  S
C414        C415   1.426       .  A
C415        C416   1.401       .  A
C415        O419   1.371       .  S
C416        H420   1.084       .  S
O417        H422   0.992       .  S
O419        H423   0.992       .  S
C425        C426   1.402       .  A
C425        C430   1.408       .  A
C425        H435   1.084       .  S
C426        C431   1.483       .  S
C426        C427   1.403       .  A
C427        C428   1.396       .  A
C427        O432   1.373       .  S
C428        C429   1.416       .  A
C428        H433   1.083       .  S
C429        C430   1.423       .  A
C430        O434   1.374       .  S
C431        C436   1.409       .  A
C431        C440   1.401       .  A
O432        H448   0.992       .  S
O434        H445   0.992       .  S
C436        C437   1.397       .  A
C436        O441   1.372       .  S
C437        C438   1.407       .  A
C437        H442   1.083       .  S
C438        C439   1.419       .  A
C439        C440   1.402       .  A
C439        O443   1.372       .  S
C440        H444   1.084       .  S
O441        H446   0.992       .  S
O443        H447   0.992       .  S
C449        C450   1.396       .  A
C449        C454   1.396       .  A
C449        H459   1.084       .  S
C450        C455   1.479       .  S
C450        C451   1.405       .  A
C451        C452   1.402       .  A
C451        O456   1.372       .  S
C452        C453   1.414       .  A
C452        H457   1.078       .  S
C453        C454   1.426       .  A
C454        O458   1.371       .  S
C455        C460   1.405       .  A
C455        C464   1.402       .  A
O456        H472   0.992       .  S
O458        H469   0.992       .  S
C460        C461   1.398       .  A
C460        O465   1.371       .  S
C461        C462   1.408       .  A
C461        H466   1.083       .  S
C462        C463   1.416       .  A
C463        C464   1.397       .  A
C463        O467   1.372       .  S
C464        H468   1.084       .  S
O465        H470   0.991       .  S
O467        H471   0.992       .  S
C473        C474   1.403       .  A
C473        C478   1.404       .  A
C473        H483   1.084       .  S
C474        C479   1.482       .  S
C474        C475   1.404       .  A
C475        C476   1.399       .  A
C475        O480   1.373       .  S
C476        C477   1.410       .  A
C476        H481   1.083       .  S
C477        C478   1.415       .  A
C478        O482   1.371       .  S
C479        C484   1.402       .  A
C479        C488   1.399       .  A
O480        H496   0.992       .  S
O482        H493   0.992       .  S
C484        C485   1.396       .  A
C484        O489   1.372       .  S
C485        C486   1.418       .  A
C485        H490   1.083       .  S
C486        C487   1.427       .  A
C487        C488   1.405       .  A
C487        O491   1.371       .  S
C488        H492   1.084       .  S
O489        H494   0.992       .  S
O491        H495   0.992       .  S
C497        C498   1.401       .  A
C497        C502   1.395       .  A
C497        H507   1.083       .  S
C498        C503   1.483       .  S
C498        C499   1.410       .  A
C499        C500   1.400       .  A
C499        O504   1.372       .  S
C500        C501   1.407       .  A
C500        H505   1.083       .  S
C501        C502   1.415       .  A
C502        O506   1.372       .  S
C503        C508   1.405       .  A
C503        C512   1.398       .  A
O504        H520   0.992       .  S
O506        H517   0.992       .  S
C508        C509   1.396       .  A
C508        O513   1.372       .  S
C509        C510   1.415       .  A
C509        H514   1.083       .  S
C510        C511   1.429       .  A
C511        C512   1.401       .  A
C511        O515   1.372       .  S
C512        H516   1.084       .  S
O513        H518   0.992       .  S
O515        H519   0.992       .  S
C521        C522   1.401       .  A
C521        C526   1.405       .  A
C521        H531   1.084       .  S
C522        C527   1.484       .  S
C522        C523   1.403       .  A
C523        C524   1.398       .  A
C523        O528   1.373       .  S
C524        C525   1.417       .  A
C524        H529   1.082       .  S
C525        C526   1.423       .  A
C526        O530   1.370       .  S
C527        C532   1.408       .  A
C527        C536   1.402       .  A
O528        H544   0.992       .  S
O530        H541   0.992       .  S
C532        C533   1.397       .  A
C532        O537   1.372       .  S
C533        C534   1.407       .  A
C533        H538   1.083       .  S
C534        C535   1.417       .  A
C535        C536   1.404       .  A
C535        O539   1.372       .  S
C536        H540   1.084       .  S
O537        H542   0.992       .  S
O539        H543   0.992       .  S
C545        C546   1.403       .  A
C545        C550   1.405       .  A
C545        H555   1.084       .  S
C546        C551   1.484       .  S
C546        C547   1.405       .  A
C547        C548   1.398       .  A
C547        O552   1.372       .  S
C548        C549   1.409       .  A
C548        H553   1.083       .  S
C549        C550   1.418       .  A
C550        O554   1.371       .  S
C551        C556   1.403       .  A
C551        C560   1.399       .  A
O552        H568   0.992       .  S
O554        H565   0.992       .  S
C556        C557   1.401       .  A
C556        O561   1.372       .  S
C557        C558   1.418       .  A
C557        H562   1.079       .  S
C558        C559   1.423       .  A
C559        C560   1.400       .  A
C559        O563   1.372       .  S
C560        H564   1.084       .  S
O561        H566   0.992       .  S
O563        H567   0.992       .  S
C569        C570   1.400       .  A
C569        C574   1.396       .  A
C569        H579   1.084       .  S
C570        C575   1.484       .  S
C570        C571   1.409       .  A
C571        C572   1.403       .  A
C571        O576   1.371       .  S
C572        C573   1.409       .  A
C572        H577   1.083       .  S
C573        C574   1.417       .  A
C574        O578   1.372       .  S
C575        C580   1.404       .  A
C575        C584   1.398       .  A
O576        H592   0.992       .  S
O578        H589   0.992       .  S
C580        C581   1.398       .  A
C580        O585   1.373       .  S
C581        C582   1.414       .  A
C581        H586   1.082       .  S
C582        C583   1.429       .  A
C583        C584   1.402       .  A
C583        O587   1.371       .  S
C584        H588   1.084       .  S
O585        H590   0.992       .  S
O587        H591   0.992       .  S
C593        C594   1.396       .  A
C593        C598   1.402       .  A
C593        H603   1.084       .  S
C594        C599   1.475       .  S
C594        C595   1.402       .  A
C595        C596   1.394       .  A
C595        O600   1.372       .  S
C596        C597   1.415       .  A
C596        H601   1.082       .  S
C597        C598   1.428       .  A
C598        O602   1.373       .  S
C599        C604   1.406       .  A
C599        C608   1.399       .  A
O600        H616   0.992       .  S
O602        H613   0.993       .  S
C604        C605   1.400       .  A
C604        O609   1.372       .  S
C605        C606   1.407       .  A
C605        H610   1.083       .  S
C606        C607   1.415       .  A
C607        C608   1.395       .  A
C607        O611   1.372       .  S
C608        H612   1.084       .  S
O609        H614   0.992       .  S
O611        H615   0.992       .  S
C617        C618   1.396       .  A
C617        C622   1.401       .  A
C617        H627   1.084       .  S
C618        C623   1.471       .  S
C618        C619   1.399       .  A
C619        C620   1.394       .  A
C619        O624   1.372       .  S
C620        C621   1.416       .  A
C620        H625   1.082       .  S
C621        C622   1.428       .  A
C622        O626   1.370       .  S
C623        C628   1.404       .  A
C623        C632   1.396       .  A
O624        H640   0.992       .  S
O626        H637   0.991       .  S
C628        C629   1.402       .  A
C628        O633   1.371       .  S
C629        C630   1.410       .  A
C629        H634   1.083       .  S
C630        C631   1.418       .  A
C631        C632   1.393       .  A
C631        O635   1.372       .  S
C632        H636   1.084       .  S
O633        H638   0.991       .  S
O635        H639   0.992       .  S
C641        C642   1.401       .  A
C641        C646   1.404       .  A
C641        H651   1.083       .  S
C642        C647   1.483       .  S
C642        C643   1.402       .  A
C643        C644   1.396       .  A
C643        O648   1.374       .  S
C644        C645   1.421       .  A
C644        H649   1.080       .  S
C645        C646   1.421       .  A
C646        O650   1.370       .  S
C647        C652   1.410       .  A
C647        C656   1.403       .  A
O648        H664   0.992       .  S
O650        H661   0.992       .  S
C652        C653   1.398       .  A
C652        O657   1.372       .  S
C653        C654   1.403       .  A
C653        H658   1.084       .  S
C654        C655   1.410       .  A
C655        C656   1.400       .  A
C655        O659   1.372       .  S
C656        H660   1.083       .  S
O657        H662   0.992       .  S
O659        H663   0.992       .  S
C665        C666   1.396       .  A
C665        C670   1.403       .  A
C665        H675   1.084       .  S
C666        C671   1.476       .  S
C666        C667   1.401       .  A
C667        C668   1.397       .  A
C667        O672   1.372       .  S
C668        C669   1.417       .  A
C668        H673   1.083       .  S
C669        C670   1.430       .  A
C670        O674   1.372       .  S
C671        C676   1.406       .  A
C671        C680   1.397       .  A
O672        H688   0.992       .  S
O674        H685   0.992       .  S
C676        C677   1.402       .  A
C676        O681   1.372       .  S
C677        C678   1.410       .  A
C677        H682   1.083       .  S
C678        C679   1.418       .  A
C679        C680   1.396       .  A
C679        O683   1.371       .  S
C680        H684   1.084       .  S
O681        H686   0.992       .  S
O683        H687   0.992       .  S
C689        C690   1.398       .  A
C689        C694   1.401       .  A
C689        H699   1.084       .  S
C690        C695   1.484       .  S
C690        C691   1.404       .  A
C691        C692   1.402       .  A
C691        O696   1.373       .  S
C692        C693   1.417       .  A
C692        H697   1.080       .  S
C693        C694   1.424       .  A
C694        O698   1.374       .  S
C695        C700   1.407       .  A
C695        C704   1.401       .  A
O696        H712   0.992       .  S
O698        H709   0.992       .  S
C700        C701   1.403       .  A
C700        O705   1.372       .  S
C701        C702   1.408       .  A
C701        H706   1.083       .  S
C702        C703   1.419       .  A
C703        C704   1.399       .  A
C703        O707   1.372       .  S
C704        H708   1.084       .  S
O705        H710   0.991       .  S
O707        H711   0.992       .  S
C713        C714   1.399       .  A
C713        C718   1.400       .  A
C713        H723   1.084       .  S
C714        C719   1.487       .  S
C714        C715   1.408       .  A
C715        C716   1.407       .  A
C715        O720   1.372       .  S
C716        C717   1.409       .  A
C716        H721   1.083       .  S
C717        C718   1.421       .  A
C718        O722   1.372       .  S
C719        C724   1.404       .  A
C719        C728   1.400       .  A
O720        H736   0.992       .  S
O722        H733   0.992       .  S
C724        C725   1.401       .  A
C724        O729   1.371       .  S
C725        C726   1.417       .  A
C725        H730   1.079       .  S
C726        C727   1.424       .  A
C727        C728   1.403       .  A
C727        O731   1.372       .  S
C728        H732   1.084       .  S
O729        H734   0.992       .  S
O731        H735   0.992       .  S
C737        C738   1.398       .  A
C737        C742   1.396       .  A
C737        H747   1.084       .  S
C738        C743   1.483       .  S
C738        C739   1.408       .  A
C739        C740   1.405       .  A
C739        O744   1.372       .  S
C740        C741   1.408       .  A
C740        H745   1.083       .  S
C741        C742   1.420       .  A
C742        O746   1.372       .  S
C743        C748   1.404       .  A
C743        C752   1.399       .  A
O744        H760   0.992       .  S
O746        H757   0.992       .  S
C748        C749   1.399       .  A
C748        O753   1.372       .  S
C749        C750   1.416       .  A
C749        H754   1.079       .  S
C750        C751   1.423       .  A
C751        C752   1.399       .  A
C751        O755   1.372       .  S
C752        H756   1.084       .  S
O753        H758   0.992       .  S
O755        H759   0.992       .  S
C761        C762   1.398       .  A
C761        C766   1.404       .  A
C761        H771   1.084       .  S
C762        C767   1.472       .  S
C762        C763   1.398       .  A
C763        C764   1.393       .  A
C763        O768   1.372       .  S
C764        C765   1.416       .  A
C764        H769   1.082       .  S
C765        C766   1.426       .  A
C766        O770   1.370       .  S
C767        C772   1.405       .  A
C767        C776   1.397       .  A
O768        H784   0.991       .  S
O770        H781   0.991       .  S
C772        C773   1.400       .  A
C772        O777   1.372       .  S
C773        C774   1.407       .  A
C773        H778   1.083       .  S
C774        C775   1.417       .  A
C775        C776   1.398       .  A
C775        O779   1.372       .  S
C776        H780   1.084       .  S
O777        H782   0.991       .  S
O779        H783   0.992       .  S
C785        C786   1.396       .  A
C785        C790   1.396       .  A
C785        H795   1.084       .  S
C786        C791   1.480       .  S
C786        C787   1.404       .  A
C787        C788   1.405       .  A
C787        O792   1.372       .  S
C788        C789   1.418       .  A
C788        H793   1.080       .  S
C789        C790   1.423       .  A
C790        O794   1.371       .  S
C791        C796   1.406       .  A
C791        C800   1.400       .  A
O792        H808   0.992       .  S
O794        H805   0.992       .  S
C796        C797   1.403       .  A
C796        O801   1.371       .  S
C797        C798   1.410       .  A
C797        H802   1.083       .  S
C798        C799   1.416       .  A
C799        C800   1.398       .  A
C799        O803   1.372       .  S
C800        H804   1.084       .  S
O801        H806   0.992       .  S
O803        H807   0.992       .  S
C809        C810   1.394       .  A
C809        C814   1.399       .  A
C809        H819   1.084       .  S
C810        C815   1.465       .  S
C810        C811   1.397       .  A
C811        C812   1.393       .  A
C811        O816   1.372       .  S
C812        C813   1.418       .  A
C812        H817   1.083       .  S
C813        C814   1.429       .  A
C814        O818   1.372       .  S
C815        C820   1.401       .  A
C815        C824   1.399       .  A
O816        H832   0.991       .  S
O818        H829   0.992       .  S
C820        C821   1.393       .  A
C820        O825   1.372       .  S
C821        C822   1.409       .  A
C821        H826   1.083       .  S
C822        C823   1.414       .  A
C823        C824   1.399       .  A
C823        O827   1.372       .  S
C824        H828   1.084       .  S
O825        H830   0.992       .  S
O827        H831   0.992       .  S
C833        C834   1.398       .  A
C833        C838   1.397       .  A
C833        H843   1.084       .  S
C834        C839   1.483       .  S
C834        C835   1.407       .  A
C835        C836   1.405       .  A
C835        O840   1.372       .  S
C836        C837   1.409       .  A
C836        H841   1.083       .  S
C837        C838   1.419       .  A
C838        O842   1.372       .  S
C839        C844   1.402       .  A
C839        C848   1.399       .  A
O840        H856   0.992       .  S
O842        H853   0.992       .  S
C844        C845   1.400       .  A
C844        O849   1.372       .  S
C845        C846   1.419       .  A
C845        H850   1.079       .  S
C846        C847   1.424       .  A
C847        C848   1.401       .  A
C847        O851   1.374       .  S
C848        H852   1.084       .  S
O849        H854   0.992       .  S
O851        H855   0.992       .  S
C857        C858   1.406       .  A
C857        C862   1.399       .  A
C857        H867   1.083       .  S
C858        C863   1.486       .  S
C858        C859   1.412       .  A
C859        C860   1.399       .  A
C859        O864   1.372       .  S
C860        C861   1.401       .  A
C860        H865   1.084       .  S
C861        C862   1.404       .  A
C862        O866   1.372       .  S
C863        C868   1.404       .  A
C863        C872   1.401       .  A
O864        H880   0.992       .  S
O866        H877   0.992       .  S
C868        C869   1.396       .  A
C868        O873   1.373       .  S
C869        C870   1.419       .  A
C869        H874   1.079       .  S
C870        C871   1.422       .  A
C871        C872   1.403       .  A
C871        O875   1.370       .  S
C872        H876   1.083       .  S
O873        H878   0.992       .  S
O875        H879   0.992       .  S
C881        C882   1.401       .  A
C881        C886   1.401       .  A
C881        H891   1.084       .  S
C882        C887   1.476       .  S
C882        C883   1.408       .  A
C883        C884   1.397       .  A
C883        O888   1.373       .  S
C884        C885   1.400       .  A
C884        H889   1.084       .  S
C885        C886   1.411       .  A
C886        O890   1.372       .  S
C887        C892   1.400       .  A
C887        C896   1.399       .  A
O888        H904   0.991       .  S
O890        H901   0.992       .  S
C892        C893   1.392       .  A
C892        O897   1.372       .  S
C893        C894   1.418       .  A
C893        H898   1.079       .  S
C894        C895   1.424       .  A
C895        C896   1.407       .  A
C895        O899   1.373       .  S
C896        H900   1.084       .  S
O897        H902   0.992       .  S
O899        H903   0.991       .  S
C905        C906   1.397       .  A
C905        C910   1.401       .  A
C905        H915   1.084       .  S
C906        C911   1.479       .  S
C906        C907   1.401       .  A
C907        C908   1.402       .  A
C907        O912   1.372       .  S
C908        C909   1.421       .  A
C908        H913   1.080       .  S
C909        C910   1.422       .  A
C910        O914   1.372       .  S
C911        C916   1.403       .  A
C911        C920   1.403       .  A
O912        H928   0.992       .  S
O914        H925   0.992       .  S
C916        C917   1.395       .  A
C916        O921   1.372       .  S
C917        C918   1.409       .  A
C917        H922   1.083       .  S
C918        C919   1.415       .  A
C919        C920   1.404       .  A
C919        O923   1.372       .  S
C920        H924   1.084       .  S
O921        H926   0.992       .  S
O923        H927   0.992       .  S
C929        C930   1.399       .  A
C929        C934   1.395       .  A
C929        H939   1.084       .  S
C930        C935   1.481       .  S
C930        C931   1.408       .  A
C931        C932   1.404       .  A
C931        O936   1.373       .  S
C932        C933   1.409       .  A
C932        H937   1.083       .  S
C933        C934   1.418       .  A
C934        O938   1.372       .  S
C935        C940   1.402       .  A
C935        C944   1.400       .  A
O936        H952   0.992       .  S
O938        H949   0.992       .  S
C940        C941   1.399       .  A
C940        O945   1.373       .  S
C941        C942   1.418       .  A
C941        H946   1.079       .  S
C942        C943   1.422       .  A
C943        C944   1.399       .  A
C943        O947   1.373       .  S
C944        H948   1.084       .  S
O945        H950   0.992       .  S
O947        H951   0.992       .  S
C953        C954   1.402       .  A
C953        C958   1.397       .  A
C953        H963   1.084       .  S
C954        C959   1.474       .  S
C954        C955   1.408       .  A
C955        C956   1.397       .  A
C955        O960   1.372       .  S
C956        C957   1.402       .  A
C956        H961   1.084       .  S
C957        C958   1.409       .  A
C958        O962   1.372       .  S
C959        C964   1.401       .  A
C959        C968   1.397       .  A
O960        H976   0.992       .  S
O962        H973   0.992       .  S
C964        C965   1.398       .  A
C964        O969   1.372       .  S
C965        C966   1.419       .  A
C965        H970   1.079       .  S
C966        C967   1.421       .  A
C967        C968   1.396       .  A
C967        O971   1.370       .  S
C968        H972   1.084       .  S
O969        H974   0.992       .  S
O971        H975   0.992       .  S
C977        C978   1.397       .  A
C977        C982   1.396       .  A
C977        H987   1.084       .  S
C978        C983   1.476       .  S
C978        C979   1.405       .  A
C979        C980   1.404       .  A
C979        O984   1.372       .  S
C980        C981   1.410       .  A
C980        H985   1.083       .  S
C981        C982   1.418       .  A
C982        O986   1.372       .  S
C983        C988   1.400       .  A
C983        C992   1.397       .  A
O984       H1000   0.992       .  S
O986        H997   0.992       .  S
C988        C989   1.399       .  A
C988        O993   1.372       .  S
C989        C990   1.418       .  A
C989        H994   1.079       .  S
C990        C991   1.423       .  A
C991        C992   1.399       .  A
C991        O995   1.372       .  S
C992        H996   1.084       .  S
O993        H998   0.992       .  S
O995        H999   0.992       .  S
C1001      C1002   1.397       .  A
C1001      C1006   1.405       .  A
C1001      H1011   1.084       .  S
C1002      C1007   1.471       .  S
C1002      C1003   1.398       .  A
C1003      C1004   1.393       .  A
C1003      O1008   1.372       .  S
C1004      C1005   1.420       .  A
C1004      H1009   1.084       .  S
C1005      C1006   1.425       .  A
C1006      O1010   1.372       .  S
C1007      C1012   1.404       .  A
C1007      C1016   1.399       .  A
O1008      H1024   0.992       .  S
O1010      H1021   0.992       .  S
C1012      C1013   1.398       .  A
C1012      O1017   1.372       .  S
C1013      C1014   1.406       .  A
C1013      H1018   1.084       .  S
C1014      C1015   1.414       .  A
C1015      C1016   1.400       .  A
C1015      O1019   1.372       .  S
C1016      H1020   1.084       .  S
O1017      H1022   0.992       .  S
O1019      H1023   0.992       .  S
