geometry optimzed in LAMMPS
_audit_creation_date              2020-11-30 
_audit_creation_method            'lammps2cif' 
_symmetry_space_group_name_H-M    'P1' 
_symmetry_Int_Tables_number       1 
_symmetry_cell_setting            triclinic 
loop_ 
_symmetry_equiv_pos_as_xyz 
  x,y,z 
_cell_length_a                    47.62623981 
_cell_length_b                    48.34817119085043 
_cell_length_c                    33.73765692163623 
_cell_angle_alpha                 68.0711190523991 
_cell_angle_beta                  86.1426490793028 
_cell_angle_gamma                 100.67833425148494 
loop_ 
_atom_site_label 
_atom_site_type_symbol 
_atom_site_fract_x 
_atom_site_fract_y 
_atom_site_fract_z 
_atom_site_charge 
O1          O  0.47915435  0.28033625  0.52911376    -0.74500
O2          O  0.47801949  0.20194317  0.03886539    -0.74600
O3          O  0.50360072  0.24287320  0.07047893    -0.74600
O4          O  0.45259758  0.23505031  0.50482273    -0.74700
O5          O  0.97933721  0.25241649  0.43340086    -0.74600
O6          O  0.05793547  0.26736077  0.00190904    -0.74600
O7          O  0.02882496  0.22183072  0.98018109    -0.74500
O8          O  0.00048319  0.29578832  0.46435710    -0.74600
Ni9        Ni  0.47360474  0.24122306  0.03572604     1.25400
Ni10       Ni  0.00758607  0.25678505  0.46918616     1.25400
C11         C  0.98177180  0.29832070  0.49134114     0.87700
C12         C  0.01416499  0.19831121  0.01257104     0.87600
C13         C  0.53022911  0.25488238  0.05402675     0.87600
C14         C  0.45862748  0.24220096  0.46431602     0.87800
O15         O  0.05371814  0.26315674  0.21775652    -0.74500
O16         O  0.99042999  0.24589077  0.30583254    -0.74600
O17         O  0.01568765  0.21230952  0.27231905    -0.74600
O18         O  0.02802834  0.29676447  0.25211258    -0.74700
O19         O  0.49289126  0.29727417  0.22465216    -0.74600
O20         O  0.48225143  0.21225184  0.24573866    -0.74600
O21         O  0.45763585  0.24550299  0.28224499    -0.74500
O22         O  0.51682488  0.26455017  0.18811690    -0.74600
Ni23       Ni  0.02303070  0.25430121  0.26365692     1.25400
Ni24       Ni  0.48624611  0.25506660  0.23359484     1.25400
C25         C  0.04841588  0.26941962  0.17909990     0.87700
C26         C  0.96471797  0.24546112  0.29673294     0.87600
C27         C  0.00019331  0.20080146  0.25042821     0.87600
C28         C  0.01286110  0.31314326  0.22782872     0.87800
O29         O  0.43774744  0.50314650  0.47587602    -0.81000
O30         O  0.05789358  0.48220120  0.47611702    -0.65700
O31         O  0.48112716  0.48121543  0.01814455    -1.12300
C32         C  0.50346546  0.08126582  0.00815888     1.05900
O33         O  0.06212176  0.99810926  0.02490036    -0.78900
O34         O  0.02834451  0.01696199  0.07616027    -0.66500
Ni35       Ni  0.45258979  0.46750000  0.48383009     1.34900
C36         C  0.00167886  0.00780016  0.09211298     0.84600
O37         O  0.00872535  0.43882921  0.48580445    -0.79400
O38         O  0.46712933  0.43169607  0.49136344    -0.89700
C39         C  0.07804528  0.49784903  0.99509595     0.84200
O40         O  0.47227221  0.48576254  0.42498989    -0.67900
O41         O  0.03646804  0.07143455  0.00991090    -0.87200
C42         C  0.49866864  0.49727934  0.40869878     0.85000
C43         C  0.98508714  0.42145201  0.48471154     1.06600
H44         H  0.02182861  0.03794107  0.45739212     0.38400
O45         O  0.01894202  0.02216367  0.48601658    -1.09800
O46         O  0.48127117  0.00421314  0.07545298    -0.66500
Ni47       Ni  0.47788995  0.01959196  0.01178491     1.26300
O48         O  0.01695449  0.49722838  0.42254251    -0.66700
O49         O  0.48109236  0.06046660  0.01143913    -0.79000
C50         C  0.42802478  0.01388983  0.49314491     0.84400
O51         O  0.43651162  0.00996182  0.02749420    -0.66200
Ni52       Ni  0.04863742  0.03447951  0.01746745     1.27400
Ni53       Ni  0.01703364  0.47934126  0.48703210     1.26100
H54         H  0.47658662  0.46545571  0.04726816     0.39000
O55         O  0.43597016  0.49841556  0.23192426    -0.81000
O56         O  0.06363316  0.49723943  0.21696702    -0.65700
O57         O  0.48212548  0.47837794  0.26923981    -1.12300
C58         C  0.50038621  0.07723733  0.26837773     1.05900
O59         O  0.06518952  0.00805587  0.27021544    -0.78900
O60         O  0.02761967  0.02021281  0.32520763    -0.66500
Ni61       Ni  0.45425805  0.46492045  0.23852651     1.34900
C62         C  0.00179883  0.00655779  0.34352469     0.84600
O63         O  0.01977321  0.44911761  0.22932479    -0.79400
O64         O  0.47056608  0.43020541  0.24484307    -0.89700
C65         C  0.07867109  0.49881213  0.24618131     0.84200
O66         O  0.47273533  0.48432699  0.17849651    -0.67900
O67         O  0.02750271  0.07401244  0.25965197    -0.87200
C68         C  0.49899688  0.49625513  0.16102525     0.85000
C69         C  0.99802004  0.42944009  0.22855460     1.06600
H70         H  0.02066325  0.04315635  0.20523646     0.38400
O71         O  0.01774965  0.02716649  0.23388829    -1.09800
O72         O  0.48212299  0.00067115  0.32822767    -0.66500
Ni73       Ni  0.47755141  0.01738544  0.26492528     1.26300
O74         O  0.01989763  0.50542459  0.16792147    -0.66700
O75         O  0.47887990  0.05659798  0.26894227    -0.79000
C76         C  0.42117773  0.00192100  0.25285067     0.84400
O77         O  0.43627830  0.00606594  0.28095326    -0.66200
Ni78       Ni  0.04535190  0.04051082  0.26484708     1.27400
Ni79       Ni  0.02281027  0.48864774  0.23176468     1.26100
H80         H  0.47849336  0.46288369  0.29829199     0.39000
O81         O  0.21648926  0.03190683  0.47336662    -0.74500
O82         O  0.29775291  0.03726015  0.47582372    -0.74600
O83         O  0.26501065  0.06347570  0.41490633    -0.74600
O84         O  0.23175501  0.96346165  0.08152171    -0.74700
O85         O  0.24675099  0.45650504  0.03605677    -0.74600
O86         O  0.25406105  0.49905692  0.44710453    -0.74600
O87         O  0.29396458  0.48795803  0.97678648    -0.74500
O88         O  0.21250075  0.48129914  0.97773578    -0.74600
Ni89       Ni  0.25724104  0.03628644  0.47470258     1.25400
Ni90       Ni  0.25312202  0.48318427  0.97632420     1.25400
C91         C  0.18886587  0.97966569  0.00293239     0.87700
C92         C  0.30924351  0.01764888  0.46757538     0.87600
C93         C  0.26561950  0.05258165  0.38577969     0.87600
C94         C  0.22862834  0.93581444  0.08454654     0.87800
O95         O  0.21216819  0.00083551  0.19907573    -0.74500
O96         O  0.29204558  0.00081043  0.20988007    -0.74600
O97         O  0.24863455  0.96550883  0.19092701    -0.74600
O98         O  0.25677210  0.03653948  0.21655159    -0.74700
O99         O  0.24672390  0.50836499  0.31502007    -0.74600
O100        O  0.24376329  0.45229993  0.25964567    -0.74600
O101        O  0.28516032  0.48026640  0.29354593    -0.74500
O102        O  0.20602844  0.48064737  0.28133584    -0.74600
Ni103      Ni  0.25274663  0.00184989  0.20154531     1.25400
Ni104      Ni  0.24496490  0.47900739  0.28970748     1.25400
C105        C  0.19937660  0.49999416  0.24744334     0.87700
C106        C  0.30504825  0.50065001  0.26450158     0.87600
C107        C  0.24936822  0.46354818  0.21845271     0.87600
C108        C  0.25444715  0.53728045  0.29287611     0.87800
C109        C  0.28811113  0.06549165  0.27695531    -0.05900
C110        C  0.25984871  0.05899925  0.26823806     0.00100
C111        C  0.23355599  0.55814436  0.34124774    -0.08500
C112        C  0.23519026  0.55484997  0.38399463    -0.05900
C113        C  0.26911297  0.07229600  0.33999628     0.00000
C114        C  0.29314655  0.07260407  0.31284238    -0.08400
C115        C  0.32356612  0.07711405  0.32350302     0.61900
H116        H  0.30546005  0.06058201  0.25998502     0.12600
H117        H  0.21545443  0.55009048  0.40576347     0.12700
C118        C  0.20450132  0.55590911  0.32567122     0.62200
F119        F  0.34107882  0.10189449  0.28966805    -0.23000
F120        F  0.31568684  0.52744457  0.41817101    -0.20300
F121        F  0.32472658  0.08284300  0.36067137    -0.20000
F122        F  0.19276557  0.52589794  0.33210636    -0.20000
F123        F  0.20735338  0.06194476  0.23628843    -0.20400
F124        F  0.18556961  0.56564651  0.34771114    -0.23000
C125        C  0.26894912  0.44502728  0.12810952    -0.05900
C126        C  0.22639026  0.91205708  0.12775458     0.00100
C127        C  0.20246017  0.90605119  0.15925272    -0.08500
C128        C  0.20764134  0.90509267  0.20009925    -0.05900
C129        C  0.23605136  0.91302242  0.20728676     0.00000
C130        C  0.27005070  0.44205501  0.17080295    -0.08400
C131        C  0.29875747  0.44259360  0.18734169     0.61900
H132        H  0.28885243  0.44905226  0.10710107     0.12600
H133        H  0.18995017  0.90509396  0.22211543     0.12700
C134        C  0.17200118  0.90486460  0.14906545     0.62200
F135        F  0.31591287  0.47193579  0.16850647    -0.23000
F136        F  0.31252115  0.42288277  0.17688736    -0.20300
F137        F  0.29515881  0.43327687  0.23183280    -0.20000
F138        F  0.17005495  0.90450588  0.10861052    -0.20000
F139        F  0.16306801  0.93009697  0.15071840    -0.20400
F140        F  0.15374608  0.87857714  0.17928403    -0.23000
C141        C  0.12105339  0.00601802  0.19752324    -0.05900
C142        C  0.10846702  0.49488060  0.24375571     0.00100
C143        C  0.11827465  0.47491230  0.27960028    -0.08500
C144        C  0.14803736  0.47797645  0.27953450    -0.05900
C145        C  0.16822113  0.49818868  0.24312186     0.00000
C146        C  0.14998321  0.00313539  0.19329092    -0.08400
C147        C  0.16741074  0.01629270  0.14830373     0.61900
H148        H  0.11213855  0.01848866  0.16926569     0.12600
H149        H  0.15548436  0.46422144  0.30851369     0.12700
C150        C  0.09758558  0.44963877  0.31724537     0.62200
F151        F  0.15082942  0.02768087  0.11638843    -0.23000
F152        F  0.17802941  0.99362326  0.14088679    -0.20300
F153        F  0.19002313  0.04012611  0.14434843    -0.20000
F154        F  0.07387740  0.43726920  0.30270344    -0.20000
F155        F  0.08842592  0.46113970  0.34641399    -0.20400
F156        F  0.11080896  0.42609600  0.33833020    -0.23000
C157        C  0.37737502  0.48594874  0.30288628    -0.05900
C158        C  0.39023223  0.00160965  0.25594179     0.00100
C159        C  0.37907207  0.02266020  0.22275381    -0.08500
C160        C  0.34927899  0.01669554  0.22176804    -0.05900
C161        C  0.33018548  0.99019846  0.25204378     0.00000
C162        C  0.34715002  0.48268728  0.30468171    -0.08400
C163        C  0.32747796  0.45755382  0.34390057     0.61900
H164        H  0.38613318  0.47008136  0.32830964     0.12600
H165        H  0.34092570  0.03312947  0.19642987     0.12700
C166        C  0.39737529  0.05160956  0.18717564     0.62200
F167        F  0.34296573  0.44195309  0.37474080    -0.23000
F168        F  0.31079881  0.43643417  0.33147198    -0.20300
F169        F  0.30980744  0.47012369  0.36322718    -0.20000
F170        F  0.39431521  0.05006187  0.14751278    -0.20000
F171        F  0.42641619  0.05636380  0.19077560    -0.20400
F172        F  0.38780612  0.07664796  0.18834797    -0.23000
C173        C  0.11321677  0.46100819  0.49640453    -0.05900
C174        C  0.10950093  0.49975905  0.98936292     0.00100
C175        C  0.12525628  0.01665514  0.98545122    -0.08500
C176        C  0.15317950  0.01165866  0.98874534    -0.05900
C177        C  0.16902210  0.49905881  0.98601623     0.00000
C178        C  0.14207284  0.45779847  0.49890045    -0.08400
C179        C  0.15051277  0.43069990  0.49271445     0.61900
H180        H  0.09725664  0.44385634  0.49166426     0.12600
H181        H  0.17041952  0.02995937  0.98815602     0.12700
C182        C  0.11975924  0.04790318  0.97942105     0.62200
F183        F  0.12732118  0.41181673  0.48602670    -0.23000
F184        F  0.16078291  0.41331341  0.52903247    -0.20300
F185        F  0.17157166  0.44101671  0.45694076    -0.20000
F186        F  0.10298455  0.04592001  0.01583390    -0.20000
F187        F  0.10564528  0.05833725  0.94404257    -0.20400
F188        F  0.14521916  0.06940008  0.97245422    -0.23000
C189        C  0.35551179  0.03697443  0.49011363    -0.05900
C190        C  0.33981178  0.01621931  0.47456064     0.00100
C191        C  0.34856656  0.47230978  0.50469560    -0.08500
C192        C  0.37858004  0.47793110  0.50383624    -0.05900
C193        C  0.39710835  0.01435016  0.49208856     0.00000
C194        C  0.38417369  0.03663848  0.49854351    -0.08400
C195        C  0.40086718  0.06040289  0.51274086     0.61900
H196        H  0.34530974  0.05380856  0.49530365     0.12600
H197        H  0.39080058  0.46412679  0.49413105     0.12700
C198        C  0.33445843  0.44667863  0.49156412     0.62200
F199        F  0.38486252  0.08103880  0.51508820    -0.23000
F200        F  0.42581542  0.07666417  0.48360985    -0.20300
F201        F  0.40182182  0.03299430  0.06649493    -0.20000
F202        F  0.32265459  0.45877050  0.45419984    -0.20000
F203        F  0.31768333  0.44249103  0.99902455    -0.20400
F204        F  0.36053235  0.44560517  0.96467884    -0.23000
C205        C  0.02042566  0.38467702  0.25452802    -0.05900
C206        C  0.00307096  0.40061023  0.22657399     0.00100
C207        C  0.48387122  0.38192954  0.21937866    -0.08500
C208        C  0.48897915  0.35431323  0.21946388    -0.05900
C209        C  0.01296114  0.34456248  0.22615097     0.00000
C210        C  0.02548910  0.35660984  0.25540279    -0.08400
C211        C  0.04341997  0.34010437  0.28836942     0.61900
H212        H  0.02926200  0.39406456  0.27678024     0.12600
H213        H  0.47464212  0.34200350  0.20500447     0.12700
C214        C  0.46059188  0.39487222  0.19448014     0.62200
F215        F  0.02668311  0.31232026  0.31740240    -0.23000
F216        F  0.05392226  0.35679201  0.31196832    -0.20300
F217        F  0.06697333  0.33541690  0.26747811    -0.20000
F218        F  0.47140307  0.42532975  0.16771711    -0.20000
F219        F  0.43691674  0.39200998  0.22297684    -0.20400
F220        F  0.45120304  0.37968192  0.16850618    -0.23000
C221        C  0.47613576  0.15124597  0.25430886    -0.05900
C222        C  0.99908741  0.16827144  0.25644986     0.00100
C223        C  0.02099860  0.15290119  0.27395794    -0.08500
C224        C  0.01948583  0.12320472  0.27600603    -0.05900
C225        C  0.49575254  0.10574298  0.27255304     0.00000
C226        C  0.47570303  0.12255121  0.25213972    -0.08400
C227        C  0.45480822  0.11100505  0.22675054     0.61900
H228        H  0.46117324  0.16441860  0.23820370     0.12600
H229        H  0.03605312  0.11156399  0.28956789     0.12700
C230        C  0.04666613  0.16747897  0.28967699     0.62200
F231        F  0.43921131  0.13226887  0.20589527    -0.23000
F232        F  0.43537434  0.08462851  0.25445579    -0.20300
F233        F  0.46992868  0.10485024  0.19573707    -0.20000
F234        F  0.03694851  0.17344801  0.32440067    -0.20000
F235        F  0.06188431  0.19432349  0.25673371    -0.20800
F236        F  0.06579185  0.14869070  0.30327883    -0.23000
C237        C  0.93288763  0.26319336  0.38321802    -0.05900
C238        C  0.93397526  0.23577419  0.41689077     0.00100
C239        C  0.43649874  0.20629423  0.43352844    -0.08500
C240        C  0.44019698  0.20787371  0.39121619    -0.05900
C241        C  0.94200769  0.24099732  0.33147655     0.00000
C242        C  0.93760066  0.26650664  0.34006966    -0.08400
C243        C  0.94169209  0.29842360  0.30552556     0.61900
H244        H  0.93373783  0.28354448  0.39002598     0.12600
H245        H  0.44466429  0.18834667  0.38553300     0.12700
C246        C  0.43671757  0.17622950  0.46970353     0.62200
F247        F  0.94483828  0.29896871  0.26424000    -0.23000
F248        F  0.96587877  0.31719150  0.30999316    -0.20300
F249        F  0.91782828  0.30995526  0.31063573    -0.20000
F250        F  0.43368541  0.17786652  0.50969991    -0.20000
F251        F  0.46233467  0.16787206  0.46329441    -0.20400
F252        F  0.41404403  0.15380593  0.46954728    -0.23000
C253        C  0.56016264  0.28840310  0.08171683    -0.05900
C254        C  0.07661364  0.26595010  0.06661449     0.00100
C255        C  0.07978078  0.24192178  0.10440120    -0.08500
C256        C  0.07623020  0.24537068  0.14376409    -0.05900
C257        C  0.07071969  0.27269840  0.14450620     0.00000
C258        C  0.56719234  0.29243920  0.11928461    -0.08400
C259        C  0.57765417  0.32409070  0.11896127     0.61900
H260        H  0.55891658  0.30793922  0.05313503     0.12600
H261        H  0.07338411  0.22542553  0.17367587     0.12700
C262        C  0.08281461  0.21140607  0.10430498     0.62200
F263        F  0.57842698  0.34674042  0.07865066    -0.23000
F264        F  0.60533789  0.32679591  0.12937163    -0.20300
F265        F  0.55992594  0.32878894  0.14889976    -0.20000
F266        F  0.08615684  0.21231801  0.06270336    -0.20000
F267        F  0.05859192  0.18901109  0.12814434    -0.20400
F268        F  0.10691789  0.20390261  0.12261750    -0.23000
C269        C  0.50233310  0.34553832  0.02720536    -0.05900
C270        C  0.98084842  0.32959110  0.49025908     0.00100
C271        C  0.96242966  0.33499860  0.52058362    -0.08500
C272        C  0.96481805  0.36532098  0.51759982    -0.05900
C273        C  0.98523055  0.39017568  0.48677322     0.00000
C274        C  0.50313878  0.37451016  0.02836024    -0.08400
C275        C  0.51763616  0.38278823  0.06239635     0.61900
H276        H  0.51315254  0.32977301  0.04925953     0.12600
H277        H  0.95087902  0.36997444  0.53991682     0.12700
C278        C  0.94049004  0.30939247  0.55644242     0.62200
F279        F  0.52517471  0.35786898  0.09255883    -0.23000
F280        F  0.55535788  0.41414742  0.51242797    -0.20300
F281        F  0.54242744  0.40556217  0.04303345    -0.20000
F282        F  0.95456375  0.28925409  0.58409327    -0.20000
F283        F  0.92102641  0.29400561  0.53883563    -0.20400
F284        F  0.92476668  0.32033208  0.58100705    -0.23000
C285        C  0.49557552  0.11077323  0.54831762    -0.05900
C286        C  0.49994909  0.11162710  0.00581041     0.00100
C287        C  0.03175899  0.13690791  0.97653232    -0.08500
C288        C  0.03176598  0.16486498  0.98042213    -0.05900
C289        C  0.49710733  0.16793763  0.01267093     0.00000
C290        C  0.49480629  0.13896253  0.55130319    -0.08400
C291        C  0.47953322  0.13832185  0.59269462     0.61900
H292        H  0.48355917  0.08945232  0.57351323     0.12600
H293        H  0.04625884  0.18547057  0.95728185     0.12700
C294        C  0.05261844  0.13607466  0.94106247     0.62200
F295        F  0.47175039  0.10897687  0.62401835    -0.23000
F296        F  0.45467857  0.14915411  0.58530306    -0.20300
F297        F  0.47707371  0.15151372  0.10587205    -0.20000
F298        F  0.03770432  0.12136896  0.91805485    -0.20000
F299        F  0.07329217  0.12059641  0.95900047    -0.20400
F300        F  0.06687442  0.16516582  0.91238378    -0.23000
O301        O  0.47156131  0.28204620  0.02870671    -0.74500
O302        O  0.48945348  0.20083247  0.54135529    -0.74600
O303        O  0.51532301  0.24504823  0.56634100    -0.74600
O304        O  0.44619127  0.24062909  0.99655851    -0.74700
O305        O  0.99241224  0.25711693  0.94474991    -0.74600
O306        O  0.03371823  0.25975253  0.50843701    -0.74600
O307        O  0.01201345  0.21617514  0.47881848    -0.74500
O308        O  0.02091582  0.30235646  0.96639683    -0.74600
Ni309      Ni  0.48303943  0.23965819  0.53756988     1.25400
Ni310      Ni  0.02608543  0.26286024  0.97108238     1.25400
C311        C  0.00546063  0.30589140  0.99593223     0.87700
C312        C  0.99514435  0.19223519  0.50791950     0.87600
C313        C  0.54100914  0.25820271  0.54628172     0.87600
C314        C  0.45494879  0.24889183  0.95626663     0.87800
O315        O  0.04374763  0.25855868  0.72600750    -0.74500
O316        O  0.98953376  0.23924646  0.82661687    -0.74600
O317        O  0.01240351  0.20634348  0.78743232    -0.74600
O318        O  0.02133302  0.29104193  0.76469458    -0.74700
O319        O  0.49147251  0.29899667  0.71869317    -0.74600
O320        O  0.48715802  0.21453005  0.73689062    -0.74600
O321        O  0.45884745  0.24476952  0.77474495    -0.74500
O322        O  0.51846295  0.26890752  0.67994649    -0.74600
Ni323      Ni  0.01792240  0.24860862  0.77776230     1.25400
Ni324      Ni  0.48781294  0.25685218  0.72598749     1.25400
C325        C  0.03396037  0.26369783  0.69022340     0.87700
C326        C  0.96257633  0.23749904  0.82398208     0.87600
C327        C  0.99503440  0.19357646  0.76879014     0.87600
C328        C  0.00378113  0.30586641  0.74394758     0.87800
O329        O  0.44296926  0.50899079  0.97442962    -0.81000
O330        O  0.06225530  0.49252261  0.96846623    -0.65700
O331        O  0.47959310  0.47876363  0.51701885    -1.12300
C332        C  0.51366494  0.07844436  0.51537533     1.05900
O333        O  0.06416294  0.00177622  0.52388563    -0.78900
O334        O  0.02873703  0.01749371  0.57676649    -0.66500
Ni335      Ni  0.45288298  0.47057721  0.98621095     1.34900
C336        C  0.00298639  0.00387921  0.59511228     0.84600
O337        O  0.01533868  0.44552943  0.98343863    -0.79400
O338        O  0.46355939  0.43229067  0.99741719    -0.89700
C339        C  0.07302582  0.48596847  0.50434838     0.84200
O340        O  0.47167286  0.48472123  0.92738815    -0.67900
O341        O  0.03012752  0.07008627  0.50970932    -0.87200
C342        C  0.49771530  0.49669037  0.90972151     0.85000
C343        C  0.99235959  0.42599942  0.98543019     1.06600
H344        H  0.02597427  0.04057791  0.95558123     0.38400
O345        O  0.02081988  0.02476655  0.98420208    -1.09800
O346        O  0.48359776  0.00345842  0.57716068    -0.66500
Ni347      Ni  0.48285075  0.02048319  0.51274393     1.26300
O348        O  0.01846769  0.50215320  0.91886103    -0.66700
O349        O  0.49023129  0.06091563  0.51398358    -0.79000
C350        C  0.42042407  0.00229253  0.00270954     0.84400
O351        O  0.44179451  0.01689180  0.52308543    -0.66200
Ni352      Ni  0.04665501  0.03567538  0.51680968     1.27400
Ni353      Ni  0.02127179  0.48643380  0.98279537     1.26100
H354        H  0.47521198  0.46286864  0.54606171     0.39000
O355        O  0.43618707  0.50135247  0.72686111    -0.81000
O356        O  0.05984187  0.49473144  0.71755255    -0.65700
O357        O  0.47962135  0.47875708  0.76635926    -1.12300
C358        C  0.50712481  0.07839535  0.76499337     1.05900
O359        O  0.06479945  0.00510396  0.77349342    -0.78900
O360        O  0.02918929  0.02162830  0.82429817    -0.66500
Ni361      Ni  0.45227038  0.46653594  0.73417522     1.34900
C362        C  0.00352313  0.00731988  0.84236509     0.84600
O363        O  0.01651931  0.44549717  0.73335872    -0.79400
O364        O  0.46817135  0.43170575  0.73989456    -0.89700
C365        C  0.07589667  0.49791389  0.74494676     0.84200
O366        O  0.47057351  0.48507999  0.67464546    -0.67900
O367        O  0.03091805  0.07413373  0.75630394    -0.87200
C368        C  0.49627129  0.49916992  0.65691129     0.85000
C369        C  0.99509278  0.42593218  0.73148832     1.06600
H370        H  0.02290617  0.04085718  0.70511650     0.38400
O371        O  0.01998648  0.02530525  0.73410517    -1.09800
O372        O  0.48211685  0.00309430  0.82688168    -0.66500
Ni373      Ni  0.48033663  0.01920279  0.76264665     1.26300
O374        O  0.01547435  0.50032879  0.67057306    -0.66700
O375        O  0.48498150  0.05942784  0.76361754    -0.79000
C376        C  0.42484104  0.01113897  0.74426787     0.84400
O377        O  0.43915155  0.01318207  0.77420891    -0.66200
Ni378      Ni  0.04744612  0.03939196  0.76441361     1.27400
Ni379      Ni  0.01897054  0.48543924  0.73381334     1.26100
H380        H  0.47659346  0.46244384  0.79468073     0.39000
O381        O  0.20232642  0.99567531  0.02160841    -0.74500
O382        O  0.28227735  0.99819998  0.03057814    -0.74600
O383        O  0.25183842  0.03012516  0.97121401    -0.74600
O384        O  0.24942109  0.00650558  0.53234269    -0.74700
O385        O  0.23921453  0.43246880  0.55737896    -0.74600
O386        O  0.25941252  0.51230727  0.91812486    -0.74600
O387        O  0.28691571  0.46979459  0.50277028    -0.74500
O388        O  0.20578723  0.46227058  0.50041441    -0.74600
Ni389      Ni  0.24209066  0.99793208  0.02758137     1.25400
Ni390      Ni  0.24643633  0.46466405  0.50086877     1.25400
C391        C  0.20096262  0.01060253  0.46501649     0.87700
C392        C  0.29524356  0.98208765  0.01615773     0.87600
C393        C  0.25364348  0.02359046  0.93793173     0.87600
C394        C  0.24641948  0.97785057  0.54134266     0.87800
O395        O  0.21429730  0.02272125  0.70735552    -0.74500
O396        O  0.29549401  0.03006184  0.71028522    -0.74600
O397        O  0.25546958  0.00187198  0.67635307    -0.74600
O398        O  0.25473449  0.05144864  0.74115267    -0.74700
O399        O  0.24383146  0.50529879  0.79811205    -0.74600
O400        O  0.23910715  0.43556461  0.76957786    -0.74600
O401        O  0.28166841  0.47240402  0.78946724    -0.74500
O402        O  0.20168331  0.46984492  0.77781093    -0.74600
Ni403      Ni  0.25528141  0.02804350  0.70648875     1.25400
Ni404      Ni  0.24112545  0.46957156  0.78620816     1.25400
C405        C  0.19473514  0.48584691  0.74151772     0.87700
C406        C  0.30114098  0.48955092  0.75713082     0.87600
C407        C  0.24464500  0.44023041  0.72975836     0.87600
C408        C  0.25141010  0.53240429  0.76870939     0.87800
C409        C  0.27954391  0.06152631  0.82224530    -0.05900
C410        C  0.25243558  0.05535784  0.80948849     0.00100
C411        C  0.23210039  0.56000331  0.80789514    -0.08500
C412        C  0.23566819  0.56091240  0.84834897    -0.05900
C413        C  0.25563941  0.04690886  0.89477806     0.00000
C414        C  0.28150263  0.05657723  0.86560691    -0.08400
C415        C  0.31048587  0.05763607  0.88166658     0.61900
H416        H  0.29878299  0.06457325  0.80058429     0.12600
H417        H  0.21668866  0.55750226  0.87078653     0.12700
C418        C  0.20217984  0.55687232  0.79502474     0.62200
F419        F  0.33317006  0.07113005  0.84776583    -0.23000
F420        F  0.32587909  0.54115544  0.85132188    -0.20300
F421        F  0.31256407  0.07454055  0.90702929    -0.20000
F422        F  0.18445616  0.52943250  0.82326115    -0.20000
F423        F  0.19891681  0.05820704  0.77888970    -0.20400
F424        F  0.19062980  0.58073674  0.79654431    -0.23000
C425        C  0.26055462  0.41198441  0.65041188    -0.05900
C426        C  0.24583683  0.95819290  0.58600867     0.00100
C427        C  0.22035038  0.94881525  0.61583491    -0.08500
C428        C  0.22306992  0.94575093  0.65829056    -0.05900
C429        C  0.25025078  0.95538575  0.66846831     0.00000
C430        C  0.26350645  0.41135379  0.69180910    -0.08400
C431        C  0.29315408  0.41399134  0.70539557     0.61900
H432        H  0.27978525  0.41540094  0.62843407     0.12600
H433        H  0.20395271  0.94183080  0.68073504     0.12700
C434        C  0.19093494  0.94686240  0.60102413     0.62200
F435        F  0.30943884  0.44351391  0.68324082    -0.23000
F436        F  0.30697847  0.39383958  0.69619423    -0.20300
F437        F  0.29119118  0.40696459  0.74935982    -0.20000
F438        F  0.18822431  0.92885819  0.57723403    -0.20000
F439        F  0.18801630  0.97586367  0.57543355    -0.20400
F440        F  0.16873823  0.93417986  0.63564111    -0.23000
C441        C  0.12204151  0.00249680  0.70258845    -0.05900
C442        C  0.10515039  0.49199576  0.74291776     0.00100
C443        C  0.11420204  0.47077284  0.77852811    -0.08500
C444        C  0.14326296  0.46870401  0.77561422    -0.05900
C445        C  0.16372863  0.48743126  0.73868870     0.00000
C446        C  0.15194149  0.00414051  0.69873661    -0.08400
C447        C  0.16918534  0.01387238  0.65431166     0.61900
H448        H  0.11189782  0.00961069  0.67374998     0.12600
H449        H  0.15030084  0.45275009  0.80309235     0.12700
C450        C  0.09314578  0.44996882  0.81921518     0.62200
F451        F  0.15138990  0.01438137  0.62334350    -0.23000
F452        F  0.18634123  0.99358547  0.65520154    -0.20300
F453        F  0.18641784  0.04293151  0.64188692    -0.20000
F454        F  0.06959711  0.43420597  0.80846165    -0.20000
F455        F  0.08378444  0.46703209  0.84020344    -0.20400
F456        F  0.10575123  0.42871506  0.84782574    -0.23000
C457        C  0.37450648  0.48583749  0.79844580    -0.05900
C458        C  0.39507298  0.01597827  0.74326280     0.00100
C459        C  0.38431173  0.02953015  0.70389668    -0.08500
C460        C  0.35454465  0.02778082  0.70500399    -0.05900
C461        C  0.33529131  0.01308404  0.74384580     0.00000
C462        C  0.34421039  0.47987177  0.79966001    -0.08400
C463        C  0.32521879  0.45803487  0.84178174     0.61900
H464        H  0.38387168  0.47396032  0.82654763     0.12600
H465        H  0.34599450  0.03683981  0.67498782     0.12700
C466        C  0.40383951  0.04559313  0.66058750     0.62200
F467        F  0.34131689  0.44656454  0.87431711    -0.23000
F468        F  0.30885314  0.43337935  0.83607639    -0.20300
F469        F  0.30730266  0.47326822  0.85539111    -0.20000
F470        F  0.41092714  0.02421031  0.64601405    -0.20000
F471        F  0.42870324  0.06342329  0.66482359    -0.20400
F472        F  0.39063043  0.06463584  0.62962177    -0.23000
C473        C  0.11960392  0.47668314  0.98118501    -0.05900
C474        C  0.10411251  0.48560611  0.50151462     0.00100
C475        C  0.12747262  0.02273967  0.49674737    -0.08500
C476        C  0.15725085  0.02446251  0.48925947    -0.05900
C477        C  0.16210587  0.47996587  0.50767180     0.00000
C478        C  0.14910027  0.47568479  0.97954282    -0.08400
C479        C  0.15831188  0.44942123  0.97178415     0.61900
H480        H  0.10391673  0.45881665  0.97751493     0.12600
H481        H  0.17193638  0.03937945  0.49970073     0.12700
C482        C  0.11748154  0.04293284  0.51772103     0.62200
F483        F  0.13527419  0.42958244  0.96658765    -0.23000
F484        F  0.17020518  0.43267618  0.00674282    -0.20300
F485        F  0.17828462  0.46076704  0.93454966    -0.20000
F486        F  0.10313521  0.02503855  0.55907505    -0.20000
F487        F  0.09940781  0.05935676  0.49326272    -0.20400
F488        F  0.14038619  0.06389726  0.52098591    -0.23000
C489        C  0.34286475  0.00981777  0.02404005    -0.05900
C490        C  0.32709300  0.98486564  0.01666580     0.00100
C491        C  0.35481057  0.48656653  0.98700848    -0.08500
C492        C  0.38348328  0.48802574  0.99507990    -0.05900
C493        C  0.38834674  0.99638016  0.01111496     0.00000
C494        C  0.37321377  0.01578990  0.02181752    -0.08400
C495        C  0.38902256  0.04311306  0.02968328     0.61900
H496        H  0.33128107  0.02516114  0.03088859     0.12600
H497        H  0.39493140  0.47186024  0.99034338     0.12700
C498        C  0.34141672  0.46272753  0.97019235     0.62200
F499        F  0.37054792  0.06071557  0.03551267    -0.23000
F500        F  0.41004461  0.06160371  0.99473673    -0.20300
F501        F  0.40818818  0.04605916  0.55317953    -0.20000
F502        F  0.33332100  0.47724961  0.93037415    -0.20000
F503        F  0.31326656  0.42563911  0.52452544    -0.20400
F504        F  0.35403816  0.43090793  0.48321340    -0.23000
C505        C  0.01416858  0.37971256  0.76350945    -0.05900
C506        C  0.00027751  0.39695084  0.73100354     0.00100
C507        C  0.48633699  0.38765415  0.70528595    -0.08500
C508        C  0.49157511  0.35971193  0.70610957    -0.05900
C509        C  0.00587982  0.33824390  0.73823523     0.00000
C510        C  0.01777568  0.35064466  0.76737303    -0.08400
C511        C  0.03382714  0.33359530  0.80283633     0.61900
H512        H  0.02161211  0.38905238  0.78654332     0.12600
H513        H  0.48112504  0.34968400  0.68557708     0.12700
C514        C  0.46709782  0.40349763  0.67416230     0.62200
F515        F  0.01606236  0.30603042  0.83066108    -0.23000
F516        F  0.04296833  0.35014269  0.82718238    -0.20300
F517        F  0.05815930  0.32842507  0.78449357    -0.20000
F518        F  0.48178241  0.43305013  0.64818876    -0.20000
F519        F  0.44213979  0.40417147  0.69681499    -0.20400
F520        F  0.45890210  0.38853017  0.64743581    -0.23000
C521        C  0.48072598  0.15147376  0.75420930    -0.05900
C522        C  0.99661551  0.16244726  0.76992642     0.00100
C523        C  0.01926193  0.14760155  0.78592634    -0.08500
C524        C  0.02009133  0.11967715  0.78236327    -0.05900
C525        C  0.50414726  0.10871838  0.76565779     0.00000
C526        C  0.48025760  0.12234109  0.75359252    -0.08400
C527        C  0.45453763  0.10705060  0.73900763     0.61900
H528        H  0.46271102  0.16199254  0.74499523     0.12600
H529        H  0.03694828  0.10814752  0.79496568     0.12700
C530        C  0.04333842  0.16100210  0.80559607     0.62200
F531        F  0.43529271  0.12568004  0.72520946    -0.23000
F532        F  0.43969432  0.08045872  0.77278087    -0.20300
F533        F  0.46402535  0.10032125  0.70486595    -0.20000
F534        F  0.03169874  0.16465370  0.84148589    -0.20000
F535        F  0.05896705  0.18890304  0.77529194    -0.20800
F536        F  0.06261489  0.14232908  0.81889185    -0.23000
C537        C  0.93998101  0.26330196  0.90727872    -0.05900
C538        C  0.94360268  0.23816580  0.94263930     0.00100
C539        C  0.43195651  0.21376077  0.92416607    -0.08500
C540        C  0.43825849  0.21297689  0.88347237    -0.05900
C541        C  0.94355764  0.23495273  0.86191904     0.00000
C542        C  0.93893981  0.26179583  0.86667525    -0.08400
C543        C  0.93468992  0.28980879  0.83007606     0.61900
H544        H  0.94186695  0.28523125  0.90992264     0.12600
H545        H  0.44082176  0.19177609  0.88116905     0.12700
C546        C  0.42337702  0.18372310  0.96296769     0.62200
F547        F  0.95735140  0.31438268  0.82285351    -0.23000
F548        F  0.90927833  0.29677952  0.84162016    -0.20300
F549        F  0.93264253  0.28535787  0.79219281    -0.20000
F550        F  0.41762989  0.18781253  0.00079934    -0.20000
F551        F  0.44509872  0.16794076  0.96640926    -0.20400
F552        F  0.39854967  0.16629618  0.95760936    -0.23000
C553        C  0.56768860  0.29463548  0.57075999    -0.05900
C554        C  0.04382704  0.25767086  0.57698785     0.00100
C555        C  0.05101344  0.23453822  0.61237405    -0.08500
C556        C  0.05598497  0.24039555  0.64923917    -0.05900
C557        C  0.05244458  0.26795342  0.65129259     0.00000
C558        C  0.56776632  0.29919110  0.60951006    -0.08400
C559        C  0.56678096  0.33029513  0.60975583     0.61900
H560        H  0.56549428  0.31311574  0.54145976     0.12600
H561        H  0.05710311  0.22147359  0.67880056     0.12700
C562        C  0.04908017  0.20236492  0.61487213     0.62200
F563        F  0.57312202  0.35295115  0.56840447    -0.23000
F564        F  0.58687114  0.33770051  0.63402990    -0.20300
F565        F  0.53959628  0.32984134  0.62755576    -0.20000
F566        F  0.05121082  0.20152996  0.57425143    -0.20000
F567        F  0.02302038  0.18389337  0.63899539    -0.20400
F568        F  0.07136142  0.19095366  0.63473715    -0.23000
C569        C  0.51902786  0.35690435  0.48571953    -0.05900
C570        C  0.00295544  0.33721884  0.99198054     0.00100
C571        C  0.02427280  0.36447185  0.96728775    -0.08500
C572        C  0.01993386  0.39267476  0.96674716    -0.05900
C573        C  0.99508975  0.39490924  0.98910016     0.00000
C574        C  0.52046537  0.38637630  0.48583676    -0.08400
C575        C  0.54989700  0.40812425  0.47634634     0.61900
H576        H  0.53872304  0.35013885  0.47932090     0.12600
H577        H  0.03578732  0.41360606  0.94772221     0.12700
C578        C  0.05163682  0.36436739  0.94151001     0.62200
F579        F  0.57201095  0.39588458  0.46597945    -0.23000
F580        F  0.49899566  0.39289616  0.08427045    -0.20300
F581        F  0.55059893  0.43517621  0.44171706    -0.20000
F582        F  0.06597429  0.34389362  0.96770116    -0.20000
F583        F  0.07053309  0.39282169  0.92445430    -0.20400
F584        F  0.04469377  0.35634292  0.90753081    -0.23000
C585        C  0.48053547  0.11234438  0.03824557    -0.05900
C586        C  0.51267071  0.10912493  0.51433743     0.00100
C587        C  0.01466304  0.13173115  0.47211862    -0.08500
C588        C  0.01280856  0.15972570  0.47456422    -0.05900
C589        C  0.50950659  0.16672532  0.51644701     0.00000
C590        C  0.47949277  0.13976210  0.04353059    -0.08400
C591        C  0.46063183  0.13775486  0.08313667     0.61900
H592        H  0.46726374  0.09074063  0.06110542     0.12600
H593        H  0.02301171  0.18086757  0.44761038     0.12700
C594        C  0.03032499  0.13177733  0.43137637     0.62200
F595        F  0.44872196  0.10773341  0.11095448    -0.23000
F596        F  0.43811692  0.15189189  0.07095700    -0.20300
F597        F  0.49782998  0.15577988  0.60899780    -0.20000
F598        F  0.01084016  0.11795001  0.41198604    -0.20000
F599        F  0.05225170  0.11631915  0.44059188    -0.20400
F600        F  0.04281471  0.16122728  0.40231133    -0.23000
O601        O  0.46796921  0.78094676  0.52287289    -0.74500
O602        O  0.50103416  0.70232416  0.05733870    -0.74600
O603        O  0.52731748  0.74827931  0.07915213    -0.74600
O604        O  0.44250437  0.73913683  0.49092259    -0.74700
O605        O  0.99530538  0.75666128  0.43318889    -0.74600
O606        O  0.04280987  0.76967037  0.99449694    -0.74600
O607        O  0.01735734  0.72430681  0.96998163    -0.74500
O608        O  0.02010022  0.79982154  0.46160483    -0.74600
Ni609      Ni  0.49503029  0.74194120  0.05036828     1.25400
Ni610      Ni  0.02522942  0.76006076  0.46729100     1.25400
C611        C  0.00214325  0.80334537  0.48838625     0.87700
C612        C  0.00308416  0.70035266  0.00204133     0.87600
C613        C  0.55314548  0.76065086  0.05907352     0.87600
C614        C  0.45227262  0.74724136  0.45104609     0.87800
O615        O  0.05291644  0.76758132  0.21088754    -0.74500
O616        O  0.99446500  0.74616441  0.30734304    -0.74600
O617        O  0.02088197  0.71466920  0.27028909    -0.74600
O618        O  0.02651999  0.79879244  0.24840384    -0.74700
O619        O  0.49961959  0.80085501  0.21560482    -0.74600
O620        O  0.49430972  0.71624494  0.23612222    -0.74600
O621        O  0.46329274  0.74800190  0.26784592    -0.74500
O622        O  0.52984918  0.76979223  0.18369800    -0.74600
Ni623      Ni  0.02484511  0.75668363  0.26078126     1.25400
Ni624      Ni  0.49575038  0.75877940  0.22400446     1.25400
C625        C  0.04482035  0.77237912  0.17400619     0.87700
C626        C  0.96781408  0.74368128  0.30233446     0.87600
C627        C  0.00453103  0.70132540  0.25120560     0.87600
C628        C  0.00927727  0.81319150  0.22614523     0.87800
O629        O  0.44067238  0.00852478  0.46330821    -0.81000
O630        O  0.06006939  0.99346406  0.46446296    -0.65700
O631        O  0.47740634  0.98026856  0.00827400    -1.12300
C632        C  0.51779537  0.57838955  0.02622423     1.05900
O633        O  0.06674777  0.50190009  0.02721289    -0.78900
O634        O  0.03396244  0.52209014  0.07737557    -0.66500
Ni635      Ni  0.45035166  0.96975014  0.47669567     1.34900
C636        C  0.00777107  0.51006052  0.09498599     0.84600
O637        O  0.01593820  0.94361422  0.47882713    -0.79400
O638        O  0.46107024  0.93117312  0.48951964    -0.89700
C639        C  0.07247591  0.99398159  0.99226512     0.84200
O640        O  0.46947913  0.98335350  0.41810584    -0.67900
O641        O  0.03989649  0.57550864  0.00743046    -0.87200
C642        C  0.49528697  0.99670155  0.40028046     0.85000
C643        C  0.99406387  0.92368467  0.47859700     1.06600
H644        H  0.02790456  0.53444977  0.46246402     0.38400
O645        O  0.02271199  0.51894227  0.49134172    -1.09800
O646        O  0.48700442  0.50363512  0.08724004    -0.66500
Ni647      Ni  0.48613234  0.52082296  0.02284188     1.26300
O648        O  0.01500862  0.00000380  0.41656537    -0.66700
O649        O  0.49405134  0.56137004  0.02444512    -0.79000
C650        C  0.42558641  0.50592992  0.50851390     0.84400
O651        O  0.44485545  0.51711928  0.03417823    -0.66200
Ni652      Ni  0.05292647  0.53836940  0.01767548     1.27400
Ni653      Ni  0.01861855  0.98367070  0.48028027     1.26100
H654        H  0.47409759  0.96491885  0.03765030     0.39000
O655        O  0.43254970  0.99824909  0.22044731    -0.81000
O656        O  0.05834350  0.99875892  0.21145259    -0.65700
O657        O  0.47843247  0.97972067  0.25747872    -1.12300
C658        C  0.51151808  0.57791528  0.27306925     1.05900
O659        O  0.06829664  0.50371362  0.27820874    -0.78900
O660        O  0.03234623  0.51899920  0.33108481    -0.66500
Ni661      Ni  0.45128430  0.96538879  0.22690828     1.34900
C662        C  0.00615405  0.50607274  0.34788163     0.84600
O663        O  0.01517581  0.94982854  0.22464571    -0.79400
O664        O  0.46924381  0.93191204  0.23318477    -0.89700
C665        C  0.07420617  0.00084844  0.23965787     0.84200
O666        O  0.46875783  0.98481910  0.16655255    -0.67900
O667        O  0.03605927  0.57375812  0.26413501    -0.87200
C668        C  0.49400449  0.00028243  0.14777498     0.85000
C669        C  0.99363031  0.92970043  0.22437144     1.06600
H670        H  0.02812724  0.54302809  0.20967840     0.38400
O671        O  0.02433508  0.52681272  0.23823031    -1.09800
O672        O  0.48727403  0.50154367  0.33661729    -0.66500
Ni673      Ni  0.48448471  0.51757824  0.27342374     1.26300
O674        O  0.01354649  0.00511348  0.16410680    -0.66700
O675        O  0.48906379  0.55806554  0.27432774    -0.79000
C676        C  0.42690775  0.50502651  0.26302471     0.84400
O677        O  0.44351622  0.50978178  0.28904013    -0.66200
Ni678      Ni  0.05148563  0.53831131  0.27133144     1.27400
Ni679      Ni  0.01735601  0.98912384  0.22750252     1.26100
H680        H  0.47613394  0.96366178  0.28591393     0.39000
O681        O  0.20651637  0.49591068  0.53086405    -0.74500
O682        O  0.28788349  0.50308644  0.53372399    -0.74600
O683        O  0.25483722  0.53291482  0.47772598    -0.74600
O684        O  0.24979972  0.49631209  0.05531638    -0.74700
O685        O  0.23098256  0.92952150  0.05109250    -0.74600
O686        O  0.26137640  0.02376874  0.39535851    -0.74600
O687        O  0.28120243  0.96462820  0.00002104    -0.74500
O688        O  0.20110836  0.96216173  0.99067221    -0.74600
Ni689      Ni  0.24712888  0.50066848  0.53381559     1.25400
Ni690      Ni  0.24105410  0.96180719  0.99472378     1.25400
C691        C  0.20057397  0.50016537  0.98707264     0.87700
C692        C  0.30101485  0.48761650  0.51819829     0.87600
C693        C  0.25680546  0.52660960  0.44431916     0.87600
C694        C  0.24637011  0.46752776  0.06500272     0.87800
O695        O  0.21918385  0.52041539  0.21829355    -0.74500
O696        O  0.29836329  0.51996754  0.23052802    -0.74600
O697        O  0.25749509  0.49243968  0.19645054    -0.74600
O698        O  0.26035871  0.54847503  0.25176065    -0.74700
O699        O  0.24407107  0.00612039  0.28655833    -0.74600
O700        O  0.23572112  0.93458724  0.26066372    -0.74600
O701        O  0.27948479  0.97047028  0.27954567    -0.74500
O702        O  0.20013163  0.97057152  0.26864071    -0.74600
Ni703      Ni  0.25935563  0.52170254  0.22193464     1.25400
Ni704      Ni  0.23934965  0.96930065  0.27632396     1.25400
C705        C  0.19281374  0.98617064  0.23251955     0.87700
C706        C  0.29902858  0.98645358  0.24694857     0.87600
C707        C  0.24101056  0.93867143  0.22095445     0.87600
C708        C  0.25260199  0.03281811  0.25611591     0.87800
C709        C  0.28519676  0.56120637  0.33043915    -0.05900
C710        C  0.25815345  0.55695929  0.31683026     0.00100
C711        C  0.23782608  0.06756249  0.28788567    -0.08500
C712        C  0.24287430  0.07445250  0.32395797    -0.05900
C713        C  0.26073625  0.55053839  0.40122123     0.00000
C714        C  0.28680844  0.55747186  0.37340945    -0.08400
C715        C  0.31536226  0.55689647  0.39072662     0.61900
H716        H  0.30409959  0.56153620  0.31033509     0.12600
H717        H  0.22476815  0.07604266  0.34365837     0.12700
C718        C  0.20824701  0.06678296  0.27415667     0.62200
F719        F  0.33845591  0.56713080  0.35772164    -0.23000
F720        F  0.33411393  0.05131383  0.32904384    -0.20300
F721        F  0.31904513  0.57572906  0.41325718    -0.20000
F722        F  0.18799597  0.04372627  0.30641266    -0.20000
F723        F  0.20774641  0.57417384  0.28209004    -0.20400
F724        F  0.20121633  0.09457387  0.26715991    -0.23000
C725        C  0.25335782  0.90934862  0.14084914    -0.05900
C726        C  0.24329389  0.44766383  0.11058109     0.00100
C727        C  0.21710444  0.44114529  0.13789524    -0.08500
C728        C  0.21856861  0.44010077  0.17982236    -0.05900
C729        C  0.24540890  0.44393322  0.19430502     0.00000
C730        C  0.25884186  0.91080406  0.18033684    -0.08400
C731        C  0.28992135  0.91722456  0.18751284     0.61900
H732        H  0.27155915  0.91289253  0.11695807     0.12600
H733        H  0.19954917  0.44090031  0.19857000     0.12700
C734        C  0.18853358  0.44029650  0.12072105     0.62200
F735        F  0.30359834  0.94690426  0.16031667    -0.23000
F736        F  0.30406990  0.89717204  0.17865835    -0.20300
F737        F  0.29162574  0.91359679  0.22978939    -0.20000
F738        F  0.18794891  0.42636110  0.09154602    -0.20000
F739        F  0.18476953  0.46973512  0.10028237    -0.20400
F740        F  0.16579439  0.42369665  0.15395380    -0.23000
C741        C  0.12794120  0.51335874  0.20613108    -0.05900
C742        C  0.10340893  0.99420882  0.23782194     0.00100
C743        C  0.11420536  0.97709291  0.27525528    -0.08500
C744        C  0.14302793  0.97437722  0.27121558    -0.05900
C745        C  0.16163001  0.98787703  0.23131123     0.00000
C746        C  0.15776745  0.51440442  0.20438795    -0.08400
C747        C  0.17718296  0.53157901  0.16104168     0.61900
H748        H  0.11962892  0.52748773  0.17835064     0.12600
H749        H  0.15140827  0.96214498  0.30012963     0.12700
C750        C  0.09541063  0.96111887  0.31939596     0.62200
F751        F  0.16139032  0.54147560  0.12748422    -0.23000
F752        F  0.19272497  0.51234619  0.15267281    -0.20300
F753        F  0.19589970  0.55705922  0.16118251    -0.20000
F754        F  0.06975376  0.94375553  0.31618399    -0.20000
F755        F  0.08957052  0.98248182  0.33494278    -0.20400
F756        F  0.10880132  0.94167150  0.34947384    -0.23000
C757        C  0.37136203  0.97563830  0.28723746    -0.05900
C758        C  0.39677679  0.50803466  0.26720731     0.00100
C759        C  0.38616619  0.52925448  0.23357184    -0.08500
C760        C  0.35630443  0.52636651  0.23546927    -0.05900
C761        C  0.33634691  0.50272308  0.26912812     0.00000
C762        C  0.34142039  0.96915191  0.28573461    -0.08400
C763        C  0.32260208  0.93933964  0.31887041     0.61900
H764        H  0.38060309  0.95954195  0.31162524     0.12600
H765        H  0.34864095  0.54267802  0.20906137     0.12700
C766        C  0.40496406  0.55536597  0.19460476     0.62200
F767        F  0.33888638  0.92051628  0.34388439    -0.23000
F768        F  0.30674707  0.92335185  0.29825046    -0.20300
F769        F  0.30408750  0.94542299  0.34630561    -0.20000
F770        F  0.39750152  0.55225645  0.15730885    -0.20000
F771        F  0.43414374  0.55665804  0.19437412    -0.20400
F772        F  0.40008900  0.58282556  0.19406299    -0.23000
C773        C  0.11917499  0.98546513  0.46384075    -0.05900
C774        C  0.10284707  0.99222423  0.98769001     0.00100
C775        C  0.12943983  0.52387789  0.99340162    -0.08500
C776        C  0.15870853  0.52298499  0.99176037    -0.05900
C777        C  0.15933983  0.98322345  0.99410353     0.00000
C778        C  0.14911578  0.98675898  0.45710787    -0.08400
C779        C  0.15916503  0.96602883  0.43738879     0.61900
H780        H  0.10402740  0.97020926  0.45447027     0.12600
H781        H  0.17375274  0.54114110  0.99575194     0.12700
C782        C  0.12010164  0.55080462  0.99908485     0.62200
F783        F  0.13655979  0.94965214  0.42568171    -0.23000
F784        F  0.17145569  0.94511039  0.46717399    -0.20300
F785        F  0.17907734  0.98330700  0.40056706    -0.20000
F786        F  0.10565401  0.54152613  0.04045443    -0.20000
F787        F  0.10221408  0.56218677  0.96928719    -0.20400
F788        F  0.14346819  0.57455075  0.99293141    -0.23000
C789        C  0.34831718  0.51398025  0.52903259    -0.05900
C790        C  0.33293688  0.49091704  0.51737756     0.00100
C791        C  0.35329796  0.99383690  0.46828329    -0.08500
C792        C  0.38133515  0.99323134  0.47798440    -0.05900
C793        C  0.39376809  0.50119362  0.51459486     0.00000
C794        C  0.37857249  0.51954549  0.52773415    -0.08400
C795        C  0.39422410  0.54537955  0.53897022     0.61900
H796        H  0.33652101  0.52808603  0.53870258     0.12600
H797        H  0.39173423  0.97622017  0.47369264     0.12700
C798        C  0.33902640  0.97051877  0.45108494     0.62200
F799        F  0.37569130  0.56227723  0.54690975    -0.23000
F800        F  0.41554724  0.56504585  0.50512593    -0.20300
F801        F  0.40839941  0.54447506  0.06633251    -0.20000
F802        F  0.33159744  0.98550203  0.41088560    -0.20000
F803        F  0.30553921  0.91830198  0.03911266    -0.20400
F804        F  0.34601323  0.91654081  0.00371959    -0.23000
C805        C  0.02009461  0.88811766  0.24409297    -0.05900
C806        C  0.99905872  0.90124062  0.22157017     0.00100
C807        C  0.48788505  0.88627507  0.20471650    -0.08500
C808        C  0.49483052  0.85905872  0.20577976    -0.05900
C809        C  0.00888343  0.84495112  0.22235505     0.00000
C810        C  0.02566008  0.86035412  0.24474323    -0.08400
C811        C  0.04900569  0.84790510  0.26999796     0.61900
H812        H  0.03166042  0.89950078  0.26236244     0.12600
H813        H  0.48395873  0.84766595  0.18704404     0.12700
C814        C  0.46543408  0.89869441  0.17723941     0.62200
F815        F  0.03662937  0.82120166  0.30544441    -0.23000
F816        F  0.06410675  0.86837092  0.28509874    -0.20300
F817        F  0.06884128  0.84236083  0.24362035    -0.20000
F818        F  0.47656069  0.92898006  0.14992488    -0.20000
F819        F  0.44081498  0.89635588  0.20355122    -0.20400
F820        F  0.45717708  0.88256100  0.15202128    -0.23000
C821        C  0.48709096  0.65311702  0.25356183    -0.05900
C822        C  0.00580815  0.66939350  0.25589614     0.00100
C823        C  0.02496183  0.65270844  0.28049719    -0.08500
C824        C  0.02493273  0.62324212  0.28190555    -0.05900
C825        C  0.50872067  0.60867991  0.27197016     0.00000
C826        C  0.48649547  0.62348669  0.25475336    -0.08400
C827        C  0.46234572  0.60856793  0.23713772     0.61900
H828        H  0.47036242  0.66457707  0.24016169     0.12600
H829        H  0.03900049  0.61022015  0.30099697     0.12700
C830        C  0.04576702  0.66535139  0.30524753     0.62200
F831        F  0.44502684  0.62828989  0.21768361    -0.23000
F832        F  0.44497688  0.58336634  0.27050537    -0.20300
F833        F  0.47396227  0.59961531  0.20649776    -0.20000
F834        F  0.03033881  0.67126055  0.33624892    -0.20000
F835        F  0.06487571  0.69185024  0.27705778    -0.20800
F836        F  0.06216623  0.64502278  0.32627005    -0.23000
C837        C  0.94548358  0.76738626  0.38616849    -0.05900
C838        C  0.94795464  0.74116966  0.42089539     0.00100
C839        C  0.42904602  0.71451017  0.41533152    -0.08500
C840        C  0.43538308  0.71490076  0.37393802    -0.05900
C841        C  0.94717449  0.74036671  0.33888231     0.00000
C842        C  0.94405157  0.76710530  0.34497880    -0.08400
C843        C  0.94173627  0.79632769  0.30866429     0.61900
H844        H  0.94787214  0.78888554  0.38998785     0.12600
H845        H  0.43738359  0.69390039  0.37046936     0.12700
C846        C  0.42134240  0.68400265  0.45314973     0.62200
F847        F  0.96520211  0.81958285  0.30371298    -0.23000
F848        F  0.91679156  0.80453911  0.31901096    -0.20300
F849        F  0.94037006  0.79306172  0.26982513    -0.20000
F850        F  0.44507608  0.67099923  0.45848901    -0.20000
F851        F  0.39910035  0.66468374  0.44541492    -0.20400
F852        F  0.41204478  0.68710670  0.49058287    -0.23000
C853        C  0.58039474  0.79723300  0.08371195    -0.05900
C854        C  0.05879719  0.76835199  0.06049699     0.00100
C855        C  0.06505429  0.74468299  0.09622793    -0.08500
C856        C  0.06921322  0.74985874  0.13383710    -0.05900
C857        C  0.06517264  0.77712035  0.13645014     0.00000
C858        C  0.58257330  0.80136846  0.12256534    -0.08400
C859        C  0.58594601  0.83277958  0.12393715     0.61900
H860        H  0.57799001  0.81605814  0.05501225     0.12600
H861        H  0.06984853  0.73058986  0.16325531     0.12700
C862        C  0.06459393  0.71300078  0.09739217     0.62200
F863        F  0.58927045  0.85552035  0.08295167    -0.23000
F864        F  0.61019354  0.83868490  0.14243921    -0.20300
F865        F  0.56209709  0.83401231  0.14839825    -0.20000
F866        F  0.06017196  0.71096794  0.05836450    -0.20000
F867        F  0.04284540  0.69179954  0.12929336    -0.20400
F868        F  0.09084180  0.70587431  0.10676186    -0.23000
C869        C  0.51241568  0.84859364  0.03092413    -0.05900
C870        C  0.00039396  0.83468447  0.48433479     0.00100
C871        C  0.99976041  0.85863972  0.44423144    -0.08500
C872        C  0.99915793  0.88790831  0.44337638    -0.05900
C873        C  0.99803476  0.89350750  0.48126097     0.00000
C874        C  0.50998590  0.87781772  0.02843352    -0.08400
C875        C  0.51822814  0.88790200  0.06444636     0.61900
H876        H  0.52180393  0.83415100  0.05707471     0.12600
H877        H  0.99871817  0.90654186  0.41318818     0.12700
C878        C  0.99726832  0.85280052  0.40326024     0.62200
F879        F  0.52486345  0.86452541  0.09860795    -0.23000
F880        F  0.46537328  0.88637742  0.58008292    -0.20300
F881        F  0.54202848  0.91225080  0.04905275    -0.20000
F882        F  0.97437223  0.82829888  0.41129846    -0.20000
F883        F  0.02242145  0.84639615  0.38973081    -0.20400
F884        F  0.99220921  0.87779250  0.36980860    -0.23000
C885        C  0.48083481  0.60897366  0.54292587    -0.05900
C886        C  0.51790908  0.60924201  0.02616258     0.00100
C887        C  0.02949300  0.63988111  0.97202854    -0.08500
C888        C  0.02540800  0.66786724  0.97258895    -0.05900
C889        C  0.51818016  0.66648621  0.03263620     0.00000
C890        C  0.47578937  0.63652615  0.54378673    -0.08400
C891        C  0.45065430  0.63481447  0.57550838     0.61900
H892        H  0.46677002  0.58731799  0.56415987     0.12600
H893        H  0.03824560  0.68903517  0.94817200     0.12700
C894        C  0.05275022  0.64010747  0.93876425     0.62200
F895        F  0.43506169  0.60507519  0.59848467    -0.23000
F896        F  0.43172356  0.65130774  0.55400200    -0.20300
F897        F  0.49274783  0.64854780  0.12520409    -0.20000
F898        F  0.04191209  0.62058842  0.91935772    -0.20000
F899        F  0.07565524  0.63071451  0.95890819    -0.20400
F900        F  0.06315639  0.66907133  0.90663196    -0.23000
O901        O  0.49119613  0.78301757  0.03922420    -0.74500
O902        O  0.47264461  0.69923178  0.53688979    -0.74600
O903        O  0.49715698  0.73983413  0.56878176    -0.74600
O904        O  0.46481808  0.73670008  0.01696617    -0.74700
O905        O  0.98037159  0.75840731  0.93254180    -0.74600
O906        O  0.05282560  0.76215337  0.50552952    -0.74600
O907        O  0.02771717  0.71879591  0.47709588    -0.74500
O908        O  0.00591440  0.80358715  0.95673177    -0.74600
Ni909      Ni  0.46869832  0.73920772  0.53180221     1.25400
Ni910      Ni  0.01269026  0.76472664  0.96121874     1.25400
C911        C  0.98829540  0.80607310  0.98495162     0.87700
C912        C  0.01063739  0.69537601  0.50679913     0.87600
C913        C  0.52420752  0.75007685  0.55450385     0.87600
C914        C  0.47082836  0.74419241  0.97625204     0.87800
O915        O  0.05213259  0.76003143  0.72454943    -0.74500
O916        O  0.99157772  0.74135758  0.81745974    -0.74600
O917        O  0.01693155  0.70815805  0.78201868    -0.74600
O918        O  0.02660842  0.79350726  0.75968385    -0.74700
O919        O  0.48184839  0.79050063  0.73623925    -0.74600
O920        O  0.47539060  0.70537798  0.76142429    -0.74600
O921        O  0.45146535  0.73824864  0.79895890    -0.74500
O922        O  0.50507937  0.75747961  0.69825186    -0.74600
Ni923      Ni  0.02294774  0.75058979  0.77265727     1.25400
Ni924      Ni  0.47718052  0.74793176  0.74733690     1.25400
C925        C  0.04510902  0.76419749  0.68716365     0.87700
C926        C  0.96546918  0.74092785  0.81021735     0.87600
C927        C  0.00013569  0.69570996  0.76225839     0.87600
C928        C  0.01173661  0.80902726  0.73326958     0.87800
O929        O  0.43176092  0.99850064  0.97031410    -0.81000
O930        O  0.05653747  0.99046328  0.96494189    -0.65700
O931        O  0.47819428  0.98084263  0.50859084    -1.12300
C932        C  0.50841037  0.57817110  0.51922747     1.05900
O933        O  0.06149234  0.49086379  0.53551391    -0.78900
O934        O  0.03017318  0.51438354  0.58237843    -0.66500
Ni935      Ni  0.45031271  0.96521661  0.97788329     1.34900
C936        C  0.00362996  0.50397210  0.59859063     0.84600
O937        O  0.00899821  0.94546202  0.97657125    -0.79400
O938        O  0.46773987  0.93092125  0.98578219    -0.89700
C939        C  0.07594595  0.99922171  0.49084522     0.84200
O940        O  0.46851935  0.98412234  0.91787708    -0.67900
O941        O  0.04015980  0.56763285  0.51249483    -0.87200
C942        C  0.49451459  0.99715906  0.90009303     0.85000
C943        C  0.98554763  0.92672511  0.97828072     1.06600
H944        H  0.02891923  0.54151291  0.95733090     0.38400
O945        O  0.02489630  0.52620203  0.98625904    -1.09800
O946        O  0.48437602  0.50211974  0.58503823    -0.66500
Ni947      Ni  0.48173843  0.51785158  0.52142696     1.26300
O948        O  0.01474262  0.00349640  0.91487376    -0.66700
O949        O  0.48599103  0.55804361  0.52159203    -0.79000
C950        C  0.43032355  0.51311593  0.00541206     0.84400
O951        O  0.44073055  0.51039102  0.53615251    -0.66200
Ni952      Ni  0.05060825  0.52907742  0.52411268     1.27400
Ni953      Ni  0.01598611  0.98566595  0.97871096     1.26100
H954        H  0.47372745  0.96516268  0.53781812     0.39000
O955        O  0.43569382  0.00404739  0.71489413    -0.81000
O956        O  0.06047326  0.99565383  0.71458467    -0.65700
O957        O  0.47754033  0.98001613  0.75864423    -1.12300
C958        C  0.50453098  0.57595948  0.77762151     1.05900
O959        O  0.06713948  0.50590738  0.77474565    -0.78900
O960        O  0.03056867  0.52062166  0.82749679    -0.66500
Ni961      Ni  0.44992263  0.96754555  0.72710719     1.34900
C962        C  0.00504431  0.50644326  0.84664986     0.84600
O963        O  0.01723017  0.94651221  0.72835407    -0.79400
O964        O  0.46347790  0.93065750  0.73858668    -0.89700
C965        C  0.07537239  0.99841555  0.74347449     0.84200
O966        O  0.46935502  0.98339453  0.66808357    -0.67900
O967        O  0.03031435  0.57284478  0.75970601    -0.87200
C968        C  0.49538768  0.99646360  0.65082558     0.85000
C969        C  0.99552635  0.92585631  0.72974106     1.06600
H970        H  0.02203402  0.53957520  0.70888194     0.38400
O971        O  0.01954068  0.52420044  0.73793929    -1.09800
O972        O  0.48431866  0.50023046  0.83764310    -0.66500
Ni973      Ni  0.48024426  0.51670118  0.77390158     1.26300
O974        O  0.01583945  0.00171551  0.66637029    -0.66700
O975        O  0.48289135  0.55592564  0.77730075    -0.79000
C976        C  0.42432957  0.50510797  0.75880158     0.84400
O977        O  0.43885621  0.50740114  0.78844566    -0.66200
Ni978      Ni  0.04778558  0.53890926  0.76696902     1.27400
Ni979      Ni  0.01955391  0.98647868  0.72965887     1.26100
H980        H  0.47340748  0.96453479  0.78772974     0.39000
O981        O  0.21575183  0.52073059  0.99711823    -0.74500
O982        O  0.29717975  0.52737031  0.99615406    -0.74600
O983        O  0.26234645  0.55218462  0.93717986    -0.74600
O984        O  0.23950146  0.46645806  0.58764218    -0.74700
O985        O  0.24667512  0.96706196  0.51223430    -0.74600
O986        O  0.25106559  0.99603127  0.94099246    -0.74600
O987        O  0.29422968  0.99854302  0.45495423    -0.74500
O988        O  0.21298321  0.99234293  0.45422058    -0.74600
Ni989      Ni  0.25647335  0.52558354  0.99713148     1.25400
Ni990      Ni  0.25370193  0.99420472  0.45313499     1.25400
C991        C  0.19282784  0.47882468  0.51369254     0.87700
C992        C  0.30899380  0.50790698  0.98799943     0.87600
C993        C  0.26179790  0.54097497  0.90834732     0.87600
C994        C  0.23751137  0.43895137  0.59074006     0.87800
O995        O  0.21431919  0.50101337  0.70869764    -0.74500
O996        O  0.29383009  0.50375974  0.72036814    -0.74600
O997        O  0.25210744  0.46734932  0.70022224    -0.74600
O998        O  0.25666134  0.53723676  0.72876314    -0.74700
O999        O  0.24540702  0.00871444  0.80137203    -0.74600
O1000       O  0.24577099  0.95909569  0.73657053    -0.74600
O1001       O  0.28587024  0.98735628  0.77001351    -0.74500
O1002       O  0.20529088  0.98039289  0.76775420    -0.74600
Ni1003     Ni  0.25462315  0.50329729  0.71197211     1.25400
Ni1004     Ni  0.24524334  0.98243442  0.77113465     1.25400
C1005       C  0.19644324  0.00002414  0.73679597     0.87700
C1006       C  0.30401862  0.01007529  0.74136567     0.87600
C1007       C  0.25072783  0.97272075  0.69552020     0.87600
C1008       C  0.25053231  0.03791925  0.78226226     0.87800
C1009       C  0.28370026  0.56493006  0.79294538    -0.05900
C1010       C  0.25586557  0.55755208  0.78323592     0.00100
C1011       C  0.22717528  0.05252668  0.83630205    -0.08500
C1012       C  0.22917331  0.04833530  0.87923137    -0.05900
C1013       C  0.26259764  0.56032606  0.86286206     0.00000
C1014       C  0.28742812  0.56600700  0.83324242    -0.08400
C1015       C  0.31738262  0.56803019  0.84588172     0.61900
H1016       H  0.30207557  0.56403599  0.77299106     0.12600
H1017       H  0.20944012  0.04110640  0.90205793     0.12700
C1018       C  0.19751682  0.04673451  0.82338873     0.62200
F1019       F  0.33661453  0.59223114  0.81357146    -0.23000
F1020       F  0.31312765  0.02830041  0.90609639    -0.20300
F1021       F  0.31838043  0.57281792  0.88377856    -0.20000
F1022       F  0.18572973  0.01557496  0.84018929    -0.20000
F1023       F  0.20287614  0.55779670  0.75343041    -0.20400
F1024       F  0.17962730  0.06084528  0.83942481    -0.23000
C1025       C  0.27290660  0.95998571  0.59976513    -0.05900
C1026       C  0.23446978  0.41541820  0.63424193     0.00100
C1027       C  0.20921946  0.40972598  0.66317314    -0.08500
C1028       C  0.21226764  0.40862122  0.70470807    -0.05900
C1029       C  0.23988716  0.41480147  0.71564550     0.00000
C1030       C  0.27570293  0.95991760  0.64066873    -0.08400
C1031       C  0.30524948  0.97284167  0.64882296     0.61900
H1032       H  0.29212233  0.96743121  0.57587930     0.12600
H1033       H  0.19392239  0.40996720  0.72424449     0.12700
C1034       C  0.18038499  0.41254372  0.64782566     0.62200
F1035       F  0.30958449  0.00431974  0.63476543    -0.23000
F1036       F  0.32687242  0.96622980  0.62671841    -0.20300
F1037       F  0.30735304  0.96053607  0.69239199    -0.20000
F1038       F  0.15841318  0.39068110  0.67855348    -0.20000
F1039       F  0.17922035  0.40828865  0.60958822    -0.20400
F1040       F  0.17606427  0.44133671  0.64142301    -0.23000
C1041       C  0.12476360  0.50946563  0.70511881    -0.05900
C1042       C  0.10522836  0.99393857  0.74289589     0.00100
C1043       C  0.11795427  0.98366440  0.78122600    -0.08500
C1044       C  0.14766951  0.98516225  0.77722481    -0.05900
C1045       C  0.16500744  0.99664862  0.73680927     0.00000
C1046       C  0.15408946  0.50802202  0.70221154    -0.08400
C1047       C  0.17420145  0.52912287  0.66059743     0.61900
H1048       H  0.11701138  0.52532346  0.67833216     0.12600
H1049       H  0.15788144  0.97866760  0.80603437     0.12700
C1050       C  0.10090026  0.97183601  0.82642320     0.62200
F1051       F  0.15982544  0.54698737  0.63020740    -0.23000
F1052       F  0.18635883  0.51191047  0.64245623    -0.20300
F1053       F  0.19567264  0.54882201  0.66902080    -0.20000
F1054       F  0.07543556  0.95137204  0.82981533    -0.20000
F1055       F  0.09481194  0.99607359  0.83508608    -0.20400
F1056       F  0.11624173  0.95670586  0.85789824    -0.23000
C1057       C  0.37620591  0.00355884  0.78239442    -0.05900
C1058       C  0.39334495  0.50558374  0.76066873     0.00100
C1059       C  0.38185543  0.52167197  0.72338338    -0.08500
C1060       C  0.35187177  0.51549231  0.72428677    -0.05900
C1061       C  0.33264801  0.49433783  0.76119064     0.00000
C1062       C  0.34633576  0.00175114  0.78355689    -0.08400
C1063       C  0.32697402  0.98743051  0.82713101     0.61900
H1064       H  0.38482572  0.99355590  0.81208982     0.12600
H1065       H  0.34338807  0.52711611  0.69514942     0.12700
C1066       C  0.40088610  0.54528370  0.68225921     0.62200
F1067       F  0.34280613  0.98341876  0.86097944    -0.23000
F1068       F  0.31080213  0.95899742  0.83270291    -0.20300
F1069       F  0.30876341  0.00613584  0.82952428    -0.20000
F1070       F  0.41317914  0.53084017  0.65956016    -0.20000
F1071       F  0.42249563  0.56378851  0.69219630    -0.20400
F1072       F  0.38523374  0.56404181  0.65557643    -0.23000
C1073       C  0.10919317  0.96483344  0.98884528    -0.05900
C1074       C  0.10795171  0.00266115  0.48390522     0.00100
C1075       C  0.12461636  0.50897746  0.50628892    -0.08500
C1076       C  0.15300306  0.50549955  0.50980412    -0.05900
C1077       C  0.16870491  0.00701142  0.46975062     0.00000
C1078       C  0.13730589  0.95980173  0.99190304    -0.08400
C1079       C  0.14285668  0.92940889  0.99405821     0.61900
H1080       H  0.09161010  0.94693358  0.98916980     0.12600
H1081       H  0.16838372  0.52305511  0.51459831     0.12700
C1082       C  0.11681216  0.53786649  0.50728699     0.62200
F1083       F  0.11774668  0.90935692  0.99491245    -0.23000
F1084       F  0.15435798  0.91568052  0.03104090    -0.20300
F1085       F  0.16188155  0.93411410  0.95812973    -0.20000
F1086       F  0.10071362  0.53127950  0.54665767    -0.20000
F1087       F  0.10111708  0.54964662  0.47433307    -0.20400
F1088       F  0.14115032  0.56041347  0.50171872    -0.23000
C1089       C  0.35516659  0.53000280  0.00747648    -0.05900
C1090       C  0.34007674  0.50805231  0.99347377     0.00100
C1091       C  0.34233784  0.96424245  0.00879661    -0.08500
C1092       C  0.37267030  0.97086293  0.00540221    -0.05900
C1093       C  0.39866851  0.51059977  0.00733720     0.00000
C1094       C  0.38434011  0.53192036  0.01396722    -0.08400
C1095       C  0.40000827  0.55717825  0.02621815     0.61900
H1096       H  0.34406793  0.54618711  0.01281997     0.12600
H1097       H  0.38463885  0.95602408  0.99784137     0.12700
C1098       C  0.32722042  0.93511240  0.00436581     0.62200
F1099       F  0.38267166  0.57680784  0.02819270    -0.23000
F1100       F  0.42418340  0.57426927  0.99586774    -0.20300
F1101       F  0.40666518  0.53342642  0.57566349    -0.20000
F1102       F  0.31567491  0.94236329  0.96619001    -0.20000
F1103       F  0.31477584  0.95118172  0.47964265    -0.20400
F1104       F  0.35714781  0.95233482  0.44607653    -0.23000
C1105       C  0.02610521  0.88758773  0.74050586    -0.05900
C1106       C  0.00066128  0.89687138  0.72761104     0.00100
C1107       C  0.47543736  0.87898294  0.71881011    -0.08500
C1108       C  0.47941978  0.84994598  0.72326764    -0.05900
C1109       C  0.01190138  0.84140493  0.72650367     0.00000
C1110       C  0.03248249  0.86048447  0.73938463    -0.08400
C1111       C  0.06102360  0.85315249  0.75232919     0.61900
H1112       H  0.04102797  0.90151474  0.75222586     0.12600
H1113       H  0.46578846  0.83728196  0.70847587     0.12700
C1114       C  0.45452307  0.89290035  0.68931861     0.62200
F1115       F  0.05734349  0.83592563  0.79628094    -0.23000
F1116       F  0.08178493  0.87982339  0.74285471    -0.20300
F1117       F  0.07158672  0.83743170  0.73008590    -0.20000
F1118       F  0.46833758  0.92185609  0.65977919    -0.20000
F1119       F  0.43070191  0.89464116  0.71328019    -0.20400
F1120       F  0.44460729  0.87564067  0.66622153    -0.23000
C1121       C  0.48349926  0.65202939  0.75297627    -0.05900
C1122       C  0.99978856  0.66367962  0.76604387     0.00100
C1123       C  0.01986561  0.64671132  0.78699427    -0.08500
C1124       C  0.01895445  0.61773421  0.78627662    -0.05900
C1125       C  0.49937948  0.60445533  0.78027948     0.00000
C1126       C  0.48524145  0.62412332  0.75028935    -0.08400
C1127       C  0.47146913  0.61546835  0.71620961     0.61900
H1128       H  0.47386891  0.66782227  0.72886147     0.12600
H1129       H  0.03380213  0.60449330  0.80267692     0.12700
C1130       C  0.04306137  0.65887296  0.80902393     0.62200
F1131       F  0.46164864  0.63929663  0.68745973    -0.23000
F1132       F  0.44808035  0.59112526  0.73652347    -0.20300
F1133       F  0.49110040  0.60730016  0.69296713    -0.20000
F1134       F  0.03022407  0.66441460  0.84243758    -0.20000
F1135       F  0.06118544  0.68549049  0.77930735    -0.20800
F1136       F  0.06014148  0.63835809  0.82642374    -0.23000
C1137       C  0.93078846  0.76385020  0.89067237    -0.05900
C1138       C  0.93255521  0.73838472  0.92703346     0.00100
C1139       C  0.44101200  0.70883357  0.94905365    -0.08500
C1140       C  0.43968291  0.70726378  0.90852997    -0.05900
C1141       C  0.94381003  0.73783512  0.84566590     0.00000
C1142       C  0.93678343  0.76419324  0.84915715    -0.08400
C1143       C  0.94280221  0.79465471  0.81118686     0.61900
H1144       H  0.93125673  0.78528978  0.89427652     0.12600
H1145       H  0.44032699  0.68598955  0.90499607     0.12700
C1146       C  0.43933275  0.67998499  0.98809238     0.62200
F1147       F  0.93487623  0.79096007  0.77448320    -0.23000
F1148       F  0.97190196  0.80778978  0.80446633    -0.20300
F1149       F  0.92753265  0.81425786  0.81912191    -0.20000
F1150       F  0.42335105  0.65477997  0.98314434    -0.20000
F1151       F  0.42602341  0.68213808  0.02420130    -0.20400
F1152       F  0.46681437  0.67579629  0.99367526    -0.23000
C1153       C  0.55218604  0.78201570  0.58561369    -0.05900
C1154       C  0.06477320  0.75824111  0.57467032     0.00100
C1155       C  0.06755535  0.73385844  0.61252508    -0.08500
C1156       C  0.06883062  0.73881809  0.65078212    -0.05900
C1157       C  0.06609480  0.76698008  0.65151566     0.00000
C1158       C  0.55583769  0.78552146  0.62444400    -0.08400
C1159       C  0.56388783  0.81747471  0.62352370     0.61900
H1160       H  0.55258767  0.80204875  0.55665078     0.12600
H1161       H  0.06670889  0.71926152  0.68108361     0.12700
C1162       C  0.06605157  0.70181456  0.61466441     0.62200
F1163       F  0.58968231  0.83290588  0.59608791    -0.23000
F1164       F  0.56747097  0.81725009  0.66399141    -0.20300
F1165       F  0.54262651  0.83291381  0.60832833    -0.20000
F1166       F  0.06739275  0.70092334  0.57407412    -0.20000
F1167       F  0.04056985  0.68258543  0.63988329    -0.20400
F1168       F  0.08910693  0.69130411  0.63314170    -0.23000
C1169       C  0.48534377  0.84006655  0.52996975    -0.05900
C1170       C  0.98541781  0.83694894  0.98154502     0.00100
C1171       C  0.98825297  0.86235152  0.94147244    -0.08500
C1172       C  0.99042219  0.89172365  0.94175619    -0.05900
C1173       C  0.98695652  0.89600263  0.98046129     0.00000
C1174       C  0.48682136  0.86932707  0.53049392    -0.08400
C1175       C  0.48802632  0.87394487  0.57246222     0.61900
H1176       H  0.48426905  0.82060910  0.55991613     0.12600
H1177       H  0.99333078  0.91140431  0.91141847     0.12700
C1178       C  0.98739978  0.85972337  0.89801523     0.62200
F1179       F  0.48622100  0.84670530  0.60742201    -0.23000
F1180       F  0.49537263  0.89673403  0.08011520    -0.20300
F1181       F  0.51386177  0.89372512  0.56949561    -0.20000
F1182       F  0.97562326  0.83031378  0.90189312    -0.20000
F1183       F  0.01506875  0.86933157  0.87529386    -0.20400
F1184       F  0.97037220  0.87821473  0.87432334    -0.23000
C1185       C  0.49741354  0.61157490  0.05585631    -0.05900
C1186       C  0.50435586  0.60834552  0.51623958     0.00100
C1187       C  0.03096312  0.63312852  0.47469474    -0.08500
C1188       C  0.02920204  0.66152625  0.47606062    -0.05900
C1189       C  0.49493232  0.66460218  0.51574173     0.00000
C1190       C  0.49778853  0.63932600  0.06108960    -0.08400
C1191       C  0.47709745  0.63870311  0.09798016     0.61900
H1192       H  0.48174933  0.59089509  0.07640071     0.12600
H1193       H  0.04147428  0.68230266  0.45022704     0.12700
C1194       C  0.04919424  0.63202569  0.43684389     0.62200
F1195       F  0.46062233  0.60955847  0.12221588    -0.23000
F1196       F  0.45813606  0.65719388  0.08250484    -0.20300
F1197       F  0.46100218  0.64630113  0.60482536    -0.20000
F1198       F  0.03221691  0.61544880  0.41791916    -0.20000
F1199       F  0.07166637  0.61826434  0.45090797    -0.20400
F1200       F  0.06103071  0.66099527  0.40561926    -0.23000
O1201       O  0.96504664  0.27421931  0.51996209    -0.74500
O1202       O  0.99892866  0.20190655  0.04220076    -0.74600
O1203       O  0.02802900  0.24635768  0.06455225    -0.74600
O1204       O  0.94286089  0.23133939  0.48819630    -0.74700
O1205       O  0.48427813  0.25560210  0.44393978    -0.74600
O1206       O  0.53847821  0.26506215  0.01337010    -0.74600
O1207       O  0.51349452  0.22276261  0.98322452    -0.74500
O1208       O  0.51016965  0.30145836  0.46773582    -0.74600
Ni1209     Ni  0.99431355  0.24137367  0.03809541     1.25400
Ni1210     Ni  0.51669996  0.26234305  0.47223748     1.25400
C1211       C  0.49364062  0.30413479  0.49707394     0.87700
C1212       C  0.49630921  0.19894190  0.01212088     0.87600
C1213       C  0.05343715  0.25888010  0.04293997     0.87600
C1214       C  0.95262004  0.23990182  0.44815914     0.87800
O1215       O  0.55070253  0.25981043  0.23135077    -0.74500
O1216       O  0.49147447  0.24230386  0.32542614    -0.74600
O1217       O  0.51514547  0.20858528  0.28977479    -0.74600
O1218       O  0.52679076  0.29386707  0.26721936    -0.74700
O1219       O  0.99609939  0.30207912  0.20638855    -0.74600
O1220       O  0.98643981  0.21732836  0.22292686    -0.74600
O1221       O  0.95916594  0.24951065  0.25869200    -0.74500
O1222       O  0.02289540  0.27043705  0.16981072    -0.74600
Ni1223     Ni  0.52221006  0.25100965  0.28005988     1.25400
Ni1224     Ni  0.99008544  0.26009722  0.21255734     1.25400
C1225       C  0.54304448  0.26444822  0.19422598     0.87700
C1226       C  0.46510917  0.24142672  0.31929061     0.87600
C1227       C  0.49768360  0.19634888  0.27061286     0.87600
C1228       C  0.51100906  0.30958261  0.24312422     0.87800
O1229       O  0.93905457  0.50558233  0.46246200    -0.81000
O1230       O  0.56016889  0.49184916  0.48361487    -0.65700
O1231       O  0.98226199  0.48155484  0.00428201    -1.12300
C1232       C  0.01240025  0.07949459  0.00598989     1.05900
O1233       O  0.56145381  0.00697183  0.03085918    -0.78900
O1234       O  0.52619700  0.02524629  0.07951814    -0.66500
Ni1235     Ni  0.95034068  0.46783974  0.47190185     1.34900
C1236       C  0.50067819  0.01063127  0.09797670     0.84600
O1237       O  0.51443516  0.44418779  0.49606128    -0.79400
O1238       O  0.96088807  0.42948144  0.48174395    -0.89700
C1239       C  0.57681913  0.49198288  0.01104629     0.84200
O1240       O  0.97113790  0.48458165  0.41334076    -0.67900
O1241       O  0.52915204  0.07708448  0.00884302    -0.87200
C1242       C  0.99777310  0.49524617  0.39752833     0.85000
C1243       C  0.49213240  0.42543471  0.49415291     1.06600
H1244       H  0.52687619  0.03952816  0.46463870     0.38400
O1245       O  0.52186852  0.02366856  0.49330285    -1.09800
O1246       O  0.98211336  0.00537528  0.06763803    -0.66500
Ni1247     Ni  0.98163271  0.02173662  0.00293221     1.26300
O1248       O  0.51789489  0.50103013  0.43275961    -0.66700
O1249       O  0.98893605  0.06240257  0.00367959    -0.79000
C1250       C  0.92207235  0.99765534  0.50081402     0.84400
O1251       O  0.94053305  0.01779515  0.01310219    -0.66200
Ni1252     Ni  0.54481632  0.04177671  0.01987529     1.27400
Ni1253     Ni  0.51906082  0.48472490  0.49669564     1.26100
H1254       H  0.97835831  0.46613039  0.03367157     0.39000
O1255       O  0.93750088  0.50166101  0.21609258    -0.81000
O1256       O  0.56237422  0.49227603  0.23348953    -0.65700
O1257       O  0.98336546  0.48096512  0.25390568    -1.12300
C1258       C  0.00167503  0.07815689  0.25951481     1.05900
O1259       O  0.56338741  0.00833446  0.27752988    -0.78900
O1260       O  0.52729370  0.02163441  0.33179174    -0.66500
Ni1261     Ni  0.95574004  0.46805524  0.22251962     1.34900
C1262       C  0.50190103  0.00678143  0.35054581     0.84600
O1263       O  0.51790202  0.44482321  0.24685107    -0.79400
O1264       O  0.97220307  0.43341960  0.22880132    -0.89700
C1265       C  0.57806926  0.49458017  0.26173357     0.84200
O1266       O  0.97427442  0.48746325  0.16246842    -0.67900
O1267       O  0.52662622  0.07450071  0.26605466    -0.87200
C1268       C  0.00032153  0.50053395  0.14469290     0.85000
C1269       C  0.49615266  0.42565798  0.24488837     1.06600
H1270       H  0.51930873  0.04365333  0.21249004     0.38400
O1271       O  0.51691619  0.02751619  0.24089384    -1.09800
O1272       O  0.98190144  0.00185875  0.32064152    -0.66500
Ni1273     Ni  0.97822344  0.01839325  0.25701203     1.26300
O1274       O  0.51878740  0.50042395  0.18426098    -0.66700
O1275       O  0.98012135  0.05802429  0.25937201    -0.79000
C1276       C  0.92185529  0.00661378  0.24395833     0.84400
O1277       O  0.93729609  0.00871253  0.27258975    -0.66200
Ni1278     Ni  0.54448200  0.04118061  0.27142142     1.27400
Ni1279     Ni  0.52157860  0.48482113  0.24788302     1.26100
H1280       H  0.98001100  0.46503994  0.28260422     0.39000
O1281       O  0.70453110  0.99531311  0.53155322    -0.74500
O1282       O  0.78591706  0.00048003  0.52787011    -0.74600
O1283       O  0.75094006  0.02906421  0.47318999    -0.74600
O1284       O  0.74791089  0.99535792  0.04680377    -0.74700
O1285       O  0.74334137  0.43698868  0.05738608    -0.74600
O1286       O  0.75528036  0.51135154  0.43202761    -0.74600
O1287       O  0.78986674  0.47226785  0.99856409    -0.74500
O1288       O  0.70786413  0.46482789  0.00196663    -0.74600
Ni1289     Ni  0.74520865  0.99911225  0.53103842     1.25400
Ni1290     Ni  0.74887127  0.46692424  0.99947893     1.25400
C1291       C  0.69620267  0.00379885  0.98331102     0.87700
C1292       C  0.79750998  0.98333162  0.51376708     0.87600
C1293       C  0.74955902  0.02067611  0.44156493     0.87600
C1294       C  0.74436255  0.96715279  0.05261553     0.87800
O1295       O  0.71272250  0.02345113  0.20936249    -0.74500
O1296       O  0.79345266  0.02817800  0.21342614    -0.74600
O1297       O  0.75278144  0.00013619  0.17984031    -0.74600
O1298       O  0.75345169  0.05155682  0.24272157    -0.74700
O1299       O  0.74746709  0.51169751  0.31019121    -0.74600
O1300       O  0.74903056  0.45036228  0.26519595    -0.74600
O1301       O  0.78876452  0.48549548  0.29041676    -0.74500
O1302       O  0.70792620  0.47668953  0.28476083    -0.74600
Ni1303     Ni  0.75346906  0.02731544  0.20898736     1.25400
Ni1304     Ni  0.74792134  0.47979826  0.29005304     1.25400
C1305       C  0.69912867  0.49351992  0.25084565     0.87700
C1306       C  0.80693763  0.50540965  0.25829600     0.87600
C1307       C  0.75457767  0.45900559  0.22428171     0.87600
C1308       C  0.75257238  0.54000777  0.28473936     0.87800
C1309       C  0.77550752  0.06196491  0.32499549    -0.05900
C1310       C  0.74890697  0.05611351  0.31078752     0.00100
C1311       C  0.73173097  0.56428316  0.32903390    -0.08500
C1312       C  0.73471436  0.56463801  0.36990813    -0.05900
C1313       C  0.75046462  0.04296096  0.39781323     0.00000
C1314       C  0.77665237  0.05532883  0.36898070    -0.08400
C1315       C  0.80543980  0.05569191  0.38541772     0.61900
H1316       H  0.79523219  0.06604838  0.30360722     0.12600
H1317       H  0.71545138  0.56104240  0.39193877     0.12700
C1318       C  0.70218044  0.56282916  0.31497662     0.62200
F1319       F  0.80519051  0.06498569  0.41954984    -0.23000
F1320       F  0.82182585  0.54158216  0.38259695    -0.20300
F1321       F  0.81070835  0.02662751  0.39928083    -0.20000
F1322       F  0.68304489  0.53653322  0.34353943    -0.20000
F1323       F  0.67894115  0.01918704  0.33862743    -0.20400
F1324       F  0.69237076  0.58805052  0.31489780    -0.23000
C1325       C  0.77456565  0.43058715  0.14205398    -0.05900
C1326       C  0.74314245  0.94555516  0.09678500     0.00100
C1327       C  0.71741938  0.93795203  0.12557808    -0.08500
C1328       C  0.71936227  0.94204129  0.16440123    -0.05900
C1329       C  0.74638677  0.95243775  0.17428469     0.00000
C1330       C  0.77879952  0.43774184  0.17807245    -0.08400
C1331       C  0.80947243  0.44930599  0.18355639     0.61900
H1332       H  0.79301617  0.43596379  0.11760529     0.12600
H1333       H  0.69993673  0.94115630  0.18395875     0.12700
C1334       C  0.68823489  0.93103906  0.11180428     0.62200
F1335       F  0.82171895  0.47668060  0.14916448    -0.23000
F1336       F  0.82548922  0.42805429  0.18418706    -0.20300
F1337       F  0.81076349  0.45375801  0.22162063    -0.20000
F1338       F  0.68825864  0.91072167  0.09181933    -0.20000
F1339       F  0.68237293  0.95771074  0.08324252    -0.20400
F1340       F  0.66646454  0.91791663  0.14703178    -0.23000
C1341       C  0.62090196  0.01057517  0.20389522    -0.05900
C1342       C  0.60774860  0.48981129  0.25863669     0.00100
C1343       C  0.61950420  0.47300484  0.29506289    -0.08500
C1344       C  0.64933642  0.47483601  0.29079874    -0.05900
C1345       C  0.66744108  0.49080701  0.25074451     0.00000
C1346       C  0.65056384  0.01098364  0.20019582    -0.08400
C1347       C  0.66812930  0.02278325  0.15553189     0.61900
H1348       H  0.61135549  0.02077515  0.17518545     0.12600
H1349       H  0.65861041  0.46389413  0.31947657     0.12700
C1350       C  0.60096889  0.45245816  0.33817291     0.62200
F1351       F  0.65058466  0.02633905  0.12371417    -0.23000
F1352       F  0.68430874  0.00220155  0.15354114    -0.20300
F1353       F  0.68626715  0.05093319  0.14656393    -0.20000
F1354       F  0.57465895  0.43812645  0.33200352    -0.20000
F1355       F  0.59641409  0.46959071  0.36184964    -0.20400
F1356       F  0.61429660  0.42971076  0.36185762    -0.23000
C1357       C  0.88145504  0.49795482  0.29148249    -0.05900
C1358       C  0.89263647  0.01255932  0.24522872     0.00100
C1359       C  0.88208453  0.02926962  0.20733137    -0.08500
C1360       C  0.85225140  0.02697648  0.20878077    -0.05900
C1361       C  0.83282677  0.01016908  0.24730106     0.00000
C1362       C  0.85146229  0.49588326  0.29635422    -0.08400
C1363       C  0.83418483  0.47971585  0.34148806     0.61900
H1364       H  0.89145620  0.48661797  0.31916280     0.12600
H1365       H  0.84412467  0.03851458  0.17915772     0.12700
C1366       C  0.90128249  0.04998976  0.16481409     0.62200
F1367       F  0.85197006  0.47382908  0.37308938    -0.23000
F1368       F  0.81712781  0.45202712  0.34568554    -0.20300
F1369       F  0.81697044  0.49783857  0.34905838    -0.20000
F1370       F  0.89784609  0.03653937  0.13525087    -0.20000
F1371       F  0.93014995  0.05598503  0.16911573    -0.20400
F1372       F  0.89342866  0.07784358  0.14878199    -0.23000
C1373       C  0.61636656  0.47824607  0.48923534    -0.05900
C1374       C  0.60749112  0.49036027  0.00664926     0.00100
C1375       C  0.62493468  0.02212175  0.00963099    -0.08500
C1376       C  0.65409916  0.02082908  0.00537057    -0.05900
C1377       C  0.66531237  0.48395885  0.01050092     0.00000
C1378       C  0.64553316  0.47625456  0.48617330    -0.08400
C1379       C  0.65505736  0.45771850  0.46216792     0.61900
H1380       H  0.60102092  0.46544065  0.47658042     0.12600
H1381       H  0.66927147  0.03492215  0.01642840     0.12700
C1382       C  0.61631986  0.04465434  0.02726459     0.62200
F1383       F  0.63267292  0.44563828  0.44499741    -0.23000
F1384       F  0.66491591  0.43355411  0.49005150    -0.20300
F1385       F  0.67671800  0.47631883  0.42818484    -0.20000
F1386       F  0.59970329  0.02897147  0.06756132    -0.20000
F1387       F  0.60092794  0.06282127  0.99926144    -0.20400
F1388       F  0.64012536  0.06397308  0.03180903    -0.23000
C1389       C  0.84627614  0.00981698  0.51957099    -0.05900
C1390       C  0.82936118  0.98525417  0.51257789     0.00100
C1391       C  0.84923470  0.47606623  0.50127538    -0.08500
C1392       C  0.87920125  0.48014518  0.50079631    -0.05900
C1393       C  0.89025531  0.99323257  0.50900031     0.00000
C1394       C  0.87649709  0.01416698  0.51798808    -0.08400
C1395       C  0.89369988  0.04137209  0.52472929     0.61900
H1396       H  0.83570810  0.02606570  0.52581060     0.12600
H1397       H  0.88973469  0.46226960  0.50004560     0.12700
C1398       C  0.83211753  0.44574026  0.50277092     0.62200
F1399       F  0.87662540  0.06085642  0.52821255    -0.23000
F1400       F  0.91558742  0.05800525  0.49025978    -0.20300
F1401       F  0.91579072  0.06472761  0.01277649    -0.20000
F1402       F  0.82256922  0.45003647  0.46354787    -0.20000
F1403       F  0.81332743  0.42691790  0.04324104    -0.20400
F1404       F  0.85322635  0.42135239  0.01130649    -0.23000
C1405       C  0.52465748  0.38544243  0.25841970    -0.05900
C1406       C  0.50099205  0.39692289  0.24160204     0.00100
C1407       C  0.99173533  0.38940107  0.19634875    -0.08500
C1408       C  0.99713770  0.36181609  0.19647729    -0.05900
C1409       C  0.51127081  0.34152987  0.23891939     0.00000
C1410       C  0.53075440  0.35850253  0.25626975    -0.08400
C1411       C  0.55842842  0.34940772  0.27079677     0.61900
H1412       H  0.53842115  0.39772341  0.27359924     0.12600
H1413       H  0.98800268  0.35301048  0.17387494     0.12700
C1414       C  0.97420177  0.40654952  0.16352182     0.62200
F1415       F  0.55220440  0.32357253  0.30886410    -0.23000
F1416       F  0.57657371  0.37245094  0.27796880    -0.20300
F1417       F  0.57328508  0.34376522  0.23897562    -0.20000
F1418       F  0.98884860  0.43674001  0.14188676    -0.20000
F1419       F  0.94758679  0.40517608  0.18415776    -0.20400
F1420       F  0.96941351  0.39420429  0.13300140    -0.23000
C1421       C  0.97611954  0.15247274  0.24327586    -0.05900
C1422       C  0.49619738  0.16394941  0.27539862     0.00100
C1423       C  0.51543871  0.14619561  0.29745061    -0.08500
C1424       C  0.51434383  0.11738878  0.29599369    -0.05900
C1425       C  0.99769731  0.10799924  0.26050269     0.00000
C1426       C  0.97471928  0.12237056  0.24551470    -0.08400
C1427       C  0.94908918  0.10659442  0.23136943     0.61900
H1428       H  0.95922637  0.16403247  0.23089839     0.12600
H1429       H  0.52894678  0.10379262  0.31242045     0.12700
C1430       C  0.53792259  0.15731489  0.32145779     0.62200
F1431       F  0.92956005  0.12488506  0.21766406    -0.23000
F1432       F  0.93453641  0.08005865  0.26554173    -0.20300
F1433       F  0.95862905  0.09956722  0.19749361    -0.20000
F1434       F  0.52441120  0.16365867  0.35362469    -0.20000
F1435       F  0.55755375  0.18320553  0.29287591    -0.20800
F1436       F  0.55352330  0.13569048  0.34091702    -0.23000
C1437       C  0.43145853  0.25877313  0.40590180    -0.05900
C1438       C  0.43686019  0.23374683  0.43969302     0.00100
C1439       C  0.93130596  0.20889995  0.40834535    -0.08500
C1440       C  0.93521194  0.21199566  0.36519690    -0.05900
C1441       C  0.44377183  0.23594274  0.35632038     0.00000
C1442       C  0.43573205  0.26073175  0.36327197    -0.08400
C1443       C  0.43844088  0.29142517  0.32672285     0.61900
H1444       H  0.43050192  0.27926430  0.41153470     0.12600
H1445       H  0.93734086  0.19224158  0.35824254     0.12700
C1446       C  0.92740620  0.17710137  0.44304336     0.62200
F1447       F  0.42747034  0.28764771  0.29170770    -0.23000
F1448       F  0.46721485  0.30631879  0.31484613    -0.20300
F1449       F  0.42340241  0.30950805  0.33914867    -0.20000
F1450       F  0.92370698  0.17678909  0.48416267    -0.20000
F1451       F  0.95124238  0.16545779  0.43812809    -0.20400
F1452       F  0.90316155  0.15824847  0.43875656    -0.23000
C1453       C  0.08066692  0.29545032  0.06646849    -0.05900
C1454       C  0.55099766  0.25882998  0.08271868     0.00100
C1455       C  0.55503305  0.23346415  0.11813496    -0.08500
C1456       C  0.56142274  0.23766835  0.15572714    -0.05900
C1457       C  0.56300104  0.26623691  0.15802935     0.00000
C1458       C  0.07677146  0.29914281  0.10570572    -0.08400
C1459       C  0.07587552  0.33022519  0.10597581     0.61900
H1460       H  0.08063980  0.31441313  0.03660540     0.12600
H1461       H  0.55967320  0.21764552  0.18532038     0.12700
C1462       C  0.54882898  0.20135946  0.11921331     0.62200
F1463       F  0.08670126  0.35345808  0.06582287    -0.23000
F1464       F  0.09250217  0.33545082  0.13563763    -0.20300
F1465       F  0.04776999  0.33129142  0.11725160    -0.20000
F1466       F  0.55040304  0.20160497  0.07796648    -0.20000
F1467       F  0.52153544  0.18581837  0.14174978    -0.20400
F1468       F  0.56893734  0.18600232  0.13971099    -0.23000
C1469       C  0.97837858  0.33949092  0.01507540    -0.05900
C1470       C  0.49270685  0.33524141  0.49515952     0.00100
C1471       C  0.46668357  0.34339582  0.50398045    -0.08500
C1472       C  0.46799444  0.37267835  0.50394094    -0.05900
C1473       C  0.49424415  0.39452268  0.49512797     0.00000
C1474       C  0.97384507  0.36774126  0.01390162    -0.08400
C1475       C  0.94639104  0.36811819  0.03925657     0.61900
H1476       H  0.96213769  0.31877624  0.03355776     0.12600
H1477       H  0.44801292  0.37849686  0.51149761     0.12700
C1478       C  0.43741292  0.32163098  0.51265555     0.62200
F1479       F  0.92802000  0.38051028  0.01102531    -0.23000
F1480       F  0.04652807  0.42336005  0.44091582    -0.20300
F1481       F  0.93180510  0.33897683  0.06737275    -0.20000
F1482       F  0.43411704  0.29792534  0.55266380    -0.20000
F1483       F  0.43522437  0.30992639  0.48102671    -0.20400
F1484       F  0.41489029  0.33611875  0.51259151    -0.23000
C1485       C  0.98504457  0.10529083  0.54273703    -0.05900
C1486       C  0.01213183  0.11008997  0.00586400     0.00100
C1487       C  0.51821918  0.13940498  0.97599813    -0.08500
C1488       C  0.51589452  0.16697418  0.97942759    -0.05900
C1489       C  0.01391747  0.16688437  0.01383933     0.00000
C1490       C  0.98335595  0.13335124  0.54552595    -0.08400
C1491       C  0.96744399  0.13264971  0.58650855     0.61900
H1492       H  0.97484592  0.08377226  0.56913329     0.12600
H1493       H  0.52967011  0.18813558  0.95638305     0.12700
C1494       C  0.54105420  0.14032171  0.94151380     0.62200
F1495       F  0.95953055  0.10332475  0.61782345    -0.23000
F1496       F  0.94247090  0.14311949  0.57817293    -0.20300
F1497       F  0.99530280  0.14938971  0.10871027    -0.20000
F1498       F  0.52987607  0.12150228  0.92124753    -0.20000
F1499       F  0.56435990  0.13084467  0.96034778    -0.20400
F1500       F  0.55105521  0.16963281  0.91012980    -0.23000
O1501       O  0.99176884  0.28246513  0.02927508    -0.74500
O1502       O  0.97569571  0.19496036  0.53327293    -0.74600
O1503       O  0.99795387  0.23734358  0.56432487    -0.74600
O1504       O  0.96242464  0.23734320  0.00720095    -0.74700
O1505       O  0.48157733  0.26096564  0.94022261    -0.74600
O1506       O  0.54690937  0.26731039  0.50529480    -0.74600
O1507       O  0.52133198  0.22181503  0.48129343    -0.74500
O1508       O  0.50596034  0.30308790  0.97097571    -0.74600
Ni1509     Ni  0.96910290  0.23372245  0.52844048     1.25400
Ni1510     Ni  0.51108412  0.26373645  0.97488580     1.25400
C1511       C  0.48809047  0.30565859  0.99881747     0.87700
C1512       C  0.50682307  0.19793917  0.51326757     0.87600
C1513       C  0.02454283  0.25036830  0.54864983     0.87600
C1514       C  0.96696897  0.24484798  0.96636610     0.87800
O1515       O  0.55244948  0.26487442  0.72294165    -0.74500
O1516       O  0.49243564  0.24462229  0.81779328    -0.74600
O1517       O  0.51927764  0.21230997  0.78207398    -0.74600
O1518       O  0.52619679  0.29697024  0.75961041    -0.74700
O1519       O  0.98380496  0.29278883  0.72881861    -0.74600
O1520       O  0.97728218  0.20808292  0.74730432    -0.74600
O1521       O  0.95274846  0.23929196  0.78901027    -0.74500
O1522       O  0.00709412  0.26232866  0.68775760    -0.74600
Ni1523     Ni  0.52374794  0.25456539  0.77224819     1.25400
Ni1524     Ni  0.97884156  0.25056420  0.73692863     1.25400
C1525       C  0.54481300  0.26990246  0.68566258     0.87700
C1526       C  0.46600482  0.24260683  0.81132887     0.87600
C1527       C  0.50330835  0.19965447  0.76178140     0.87600
C1528       C  0.50926304  0.31182269  0.73716269     0.87800
O1529       O  0.93995374  0.50518213  0.96412138    -0.81000
O1530       O  0.56072570  0.48877048  0.98351126    -0.65700
O1531       O  0.97806336  0.47725313  0.50569327    -1.12300
C1532       C  0.00437383  0.07413405  0.50892061     1.05900
O1533       O  0.56214810  0.99650701  0.53471616    -0.78900
O1534       O  0.52972089  0.01614194  0.58530436    -0.66500
Ni1535     Ni  0.95390030  0.46886027  0.97373618     1.34900
C1536       C  0.50317496  0.00593078  0.60151059     0.84600
O1537       O  0.51204570  0.44401816  0.99585380    -0.79400
O1538       O  0.96730952  0.43203221  0.98354381    -0.89700
C1539       C  0.57523965  0.49684206  0.51113036     0.84200
O1540       O  0.97247840  0.48510559  0.91421852    -0.67900
O1541       O  0.53803316  0.07088090  0.51839814    -0.87200
C1542       C  0.99851609  0.49727545  0.89617342     0.85000
C1543       C  0.48834755  0.42553304  0.99763387     1.06600
H1544       H  0.52059041  0.04250475  0.96036863     0.38400
O1545       O  0.51739327  0.02742646  0.98948712    -1.09800
O1546       O  0.98337370  0.99765905  0.57278376    -0.66500
Ni1547     Ni  0.97949929  0.01360552  0.50938946     1.26300
O1548       O  0.51747686  0.50162696  0.93283988    -0.66700
O1549       O  0.98223378  0.05366577  0.51092141    -0.79000
C1550       C  0.92603361  0.01398889  0.98421421     0.84400
O1551       O  0.93838126  0.00354470  0.52648686    -0.66200
Ni1552     Ni  0.54972330  0.03343753  0.52652399     1.27400
Ni1553     Ni  0.51984733  0.48445393  0.99721990     1.26100
H1554       H  0.97261473  0.46149198  0.53477475     0.39000
O1555       O  0.93264591  0.49616193  0.72063350    -0.81000
O1556       O  0.55968306  0.49696091  0.72753820    -0.65700
O1557       O  0.97954507  0.47701269  0.75663363    -1.12300
C1558       C  0.00479586  0.07730275  0.75866212     1.05900
O1559       O  0.56484054  0.00226732  0.78216730    -0.78900
O1560       O  0.52824618  0.01817445  0.83349731    -0.66500
Ni1561     Ni  0.95182579  0.46346344  0.72568520     1.34900
C1562       C  0.50188055  0.00671771  0.85054245     0.84600
O1563       O  0.51599105  0.44866950  0.73761294    -0.79400
O1564       O  0.96925161  0.42974769  0.73047683    -0.89700
C1565       C  0.57503949  0.49870216  0.75641482     0.84200
O1566       O  0.96956689  0.48333580  0.66535273    -0.67900
O1567       O  0.53230354  0.07250370  0.76677431    -0.87200
C1568       C  0.99574500  0.49548994  0.64768636     0.85000
C1569       C  0.49428673  0.42876160  0.73673310     1.06600
H1570       H  0.52410941  0.04004558  0.71353482     0.38400
O1571       O  0.51988634  0.02445552  0.74259139    -1.09800
O1572       O  0.98426701  0.00074540  0.81998110    -0.66500
Ni1573     Ni  0.98067653  0.01691181  0.75711935     1.26300
O1574       O  0.51549276  0.50539115  0.67973417    -0.66700
O1575       O  0.98314079  0.05666929  0.75972731    -0.79000
C1576       C  0.92411174  0.00324083  0.74574591     0.84400
O1577       O  0.93976452  0.00721926  0.77321300    -0.66200
Ni1578     Ni  0.54759468  0.03688746  0.77412567     1.27400
Ni1579     Ni  0.51884458  0.48757227  0.74302158     1.26100
H1580       H  0.97650576  0.46123606  0.78541223     0.39000
O1581       O  0.71229724  0.02297763  0.99482667    -0.74500
O1582       O  0.79380903  0.02920371  0.98676850    -0.74600
O1583       O  0.75778522  0.05771926  0.93392885    -0.74600
O1584       O  0.73878456  0.96682205  0.58689649    -0.74700
O1585       O  0.74237971  0.44479884  0.54194254    -0.74600
O1586       O  0.75513834  0.49890528  0.94365328    -0.74600
O1587       O  0.78967742  0.48141329  0.48475188    -0.74500
O1588       O  0.70798084  0.47561582  0.48922138    -0.74600
Ni1589     Ni  0.75316648  0.02760165  0.99147863     1.25400
Ni1590     Ni  0.74874128  0.47711947  0.48579604     1.25400
C1591       C  0.68933426  0.97747875  0.51692842     0.87700
C1592       C  0.80488250  0.01106928  0.97423907     0.87600
C1593       C  0.75622994  0.04931789  0.90237391     0.87600
C1594       C  0.73578210  0.93867525  0.59256778     0.87800
O1595       O  0.71123638  0.00016772  0.71497197    -0.74500
O1596       O  0.79209264  0.00810411  0.72008608    -0.74600
O1597       O  0.75081593  0.96954597  0.70265240    -0.74600
O1598       O  0.75286763  0.03865709  0.73187261    -0.74700
O1599       O  0.74223101  0.49870399  0.81252069    -0.74600
O1600       O  0.73934978  0.44072209  0.76123252    -0.74600
O1601       O  0.78152451  0.47177387  0.78940667    -0.74500
O1602       O  0.70116230  0.46919304  0.78258195    -0.74600
Ni1603     Ni  0.75209414  0.00509236  0.71491858     1.25400
Ni1604     Ni  0.74072319  0.46871698  0.78874424     1.25400
C1605       C  0.69376852  0.48859520  0.74940635     0.87700
C1606       C  0.80046811  0.49214782  0.75861213     0.87600
C1607       C  0.74408290  0.45060986  0.72019250     0.87600
C1608       C  0.74851127  0.52742679  0.78942584     0.87800
C1609       C  0.77853464  0.07051301  0.79287432    -0.05900
C1610       C  0.75096691  0.05917360  0.78562629     0.00100
C1611       C  0.72628016  0.54496469  0.84156455    -0.08500
C1612       C  0.73081975  0.54708601  0.88092398    -0.05900
C1613       C  0.75663107  0.07141185  0.85855363     0.00000
C1614       C  0.78159221  0.07785483  0.82896805    -0.08400
C1615       C  0.81140860  0.08618006  0.83969122     0.61900
H1616       H  0.79752401  0.06929493  0.77451407     0.12600
H1617       H  0.71220019  0.54144065  0.90525189     0.12700
C1618       C  0.69532961  0.53495159  0.83551531     0.62200
F1619       F  0.82866149  0.10943525  0.80377705    -0.23000
F1620       F  0.81679973  0.53380618  0.90437188    -0.20300
F1621       F  0.81039370  0.09629040  0.87301395    -0.20000
F1622       F  0.68341042  0.50582955  0.86635594    -0.20000
F1623       F  0.69777972  0.06997452  0.75127713    -0.20400
F1624       F  0.67942365  0.55486890  0.84076405    -0.23000
C1625       C  0.76332755  0.42432583  0.63707705    -0.05900
C1626       C  0.73478376  0.91665139  0.63667396     0.00100
C1627       C  0.70993862  0.90898175  0.66735709    -0.08500
C1628       C  0.71376070  0.90865174  0.70838360    -0.05900
C1629       C  0.74161808  0.91721947  0.71726300     0.00000
C1630       C  0.76450157  0.42453268  0.67834989    -0.08400
C1631       C  0.79242064  0.42316738  0.69701680     0.61900
H1632       H  0.78320421  0.42681507  0.61711972     0.12600
H1633       H  0.69521062  0.90777248  0.72969086     0.12700
C1634       C  0.67954202  0.90421828  0.65653773     0.62200
F1635       F  0.81278656  0.45006635  0.67417181    -0.23000
F1636       F  0.80260463  0.39889031  0.69405891    -0.20300
F1637       F  0.78847431  0.41874501  0.74017406    -0.20000
F1638       F  0.67915987  0.90549829  0.61494947    -0.20000
F1639       F  0.66636069  0.92631830  0.66075930    -0.20400
F1640       F  0.66372564  0.87576522  0.68491174    -0.23000
C1641       C  0.61934666  0.99358211  0.71267273    -0.05900
C1642       C  0.60431779  0.49296628  0.75479187     0.00100
C1643       C  0.61562001  0.47733875  0.79259535    -0.08500
C1644       C  0.64464051  0.47576487  0.78858165    -0.05900
C1645       C  0.66280709  0.48938711  0.74856355     0.00000
C1646       C  0.64854141  0.99149338  0.70948692    -0.08400
C1647       C  0.66543905  0.00073743  0.66490886     0.61900
H1648       H  0.60992275  0.00281640  0.68353171     0.12600
H1649       H  0.65365272  0.46478763  0.81749055     0.12700
C1650       C  0.59738671  0.46206602  0.83718649     0.62200
F1651       F  0.64732243  0.00228394  0.63407741    -0.23000
F1652       F  0.68141900  0.97957091  0.66518456    -0.20300
F1653       F  0.68377101  0.02923010  0.65265963    -0.20000
F1654       F  0.57169692  0.44401808  0.83545036    -0.20000
F1655       F  0.59165484  0.48400694  0.85162287    -0.20400
F1656       F  0.61133286  0.44342012  0.86736224    -0.23000
C1657       C  0.87434603  0.48470632  0.79558218    -0.05900
C1658       C  0.89370665  0.00581825  0.74877224     0.00100
C1659       C  0.88096245  0.01845724  0.71144085    -0.08500
C1660       C  0.85087134  0.01386400  0.71545943    -0.05900
C1661       C  0.83305730  0.99911186  0.75591296     0.00000
C1662       C  0.84403956  0.48075917  0.79859984    -0.08400
C1663       C  0.82538993  0.46097314  0.84197725     0.61900
H1664       H  0.88385178  0.47171078  0.82279909     0.12600
H1665       H  0.84122083  0.02172390  0.68626060     0.12700
C1666       C  0.89896916  0.03746038  0.66746953     0.62200
F1667       F  0.84187541  0.45172759  0.87474120    -0.23000
F1668       F  0.80886057  0.43494885  0.83990868    -0.20300
F1669       F  0.80758796  0.47742186  0.85297499    -0.20000
F1670       F  0.90657938  0.01847268  0.64859990    -0.20000
F1671       F  0.92362921  0.05554043  0.67192497    -0.20400
F1672       F  0.88399134  0.05673837  0.64021794    -0.23000
C1673       C  0.61407066  0.46166735  0.01655045    -0.05900
C1674       C  0.60633703  0.49657141  0.50827289     0.00100
C1675       C  0.62482537  0.01353084  0.50262605    -0.08500
C1676       C  0.65214230  0.00769528  0.50948554    -0.05900
C1677       C  0.66498399  0.49222176  0.50494000     0.00000
C1678       C  0.64263639  0.45782102  0.01957655    -0.08400
C1679       C  0.64809732  0.42584755  0.03535454     0.61900
H1680       H  0.59640021  0.44202853  0.02385126     0.12600
H1681       H  0.66823896  0.02486197  0.51395524     0.12700
C1682       C  0.61925638  0.04440899  0.49848388     0.62200
F1683       F  0.62259960  0.40358094  0.04902707    -0.23000
F1684       F  0.66316301  0.42128101  0.06996095    -0.20300
F1685       F  0.66390782  0.42218868  0.00251231    -0.20000
F1686       F  0.60581005  0.04208523  0.53756352    -0.20000
F1687       F  0.60193661  0.05424055  0.46705288    -0.20400
F1688       F  0.64481120  0.06654034  0.48657499    -0.23000
C1689       C  0.85454246  0.03797974  0.97476987    -0.05900
C1690       C  0.83595909  0.01090120  0.97701921     0.00100
C1691       C  0.85095248  0.47168033  0.00752569    -0.08500
C1692       C  0.88116738  0.47765995  0.00408106    -0.05900
C1693       C  0.89493244  0.01337266  0.98602548     0.00000
C1694       C  0.88391782  0.03961303  0.97931869    -0.08400
C1695       C  0.90343943  0.06934194  0.97554680     0.61900
H1696       H  0.84592834  0.05813245  0.96893186     0.12600
H1697       H  0.89260699  0.46115724  0.00041875     0.12700
C1698       C  0.83505896  0.44115501  0.00806549     0.62200
F1699       F  0.88841851  0.09213056  0.96986559    -0.23000
F1700       F  0.92506429  0.07932958  0.94055237    -0.20300
F1701       F  0.90561078  0.03108616  0.56232324    -0.20000
F1702       F  0.82348117  0.44580751  0.97020249    -0.20000
F1703       F  0.80876765  0.43398780  0.53554191    -0.20400
F1704       F  0.84867510  0.42405261  0.51062254    -0.23000
C1705       C  0.51870060  0.38567429  0.75855172    -0.05900
C1706       C  0.49965726  0.40038728  0.73302172     0.00100
C1707       C  0.99165912  0.38631437  0.69892219    -0.08500
C1708       C  0.99399066  0.35674828  0.70369003    -0.05900
C1709       C  0.50903993  0.34362723  0.73403895     0.00000
C1710       C  0.52337138  0.35729554  0.76042040    -0.08400
C1711       C  0.54248350  0.34194829  0.79219596     0.61900
H1712       H  0.52894676  0.39610383  0.77884132     0.12600
H1713       H  0.98622364  0.34777260  0.68045700     0.12700
C1714       C  0.98117602  0.40655921  0.65899487     0.62200
F1715       F  0.52639720  0.31451692  0.82304467    -0.23000
F1716       F  0.55399187  0.35974596  0.81378975    -0.20300
F1717       F  0.56540162  0.33689763  0.77046973    -0.20000
F1718       F  0.00046313  0.43471526  0.64044698    -0.20000
F1719       F  0.95419515  0.41060186  0.66997117    -0.20400
F1720       F  0.97919933  0.39404733  0.62818889    -0.23000
C1721       C  0.97609610  0.14834505  0.75097130    -0.05900
C1722       C  0.50397693  0.16777721  0.76601593     0.00100
C1723       C  0.52765104  0.15394675  0.77880094    -0.08500
C1724       C  0.52693066  0.12471507  0.77880659    -0.05900
C1725       C  0.00011788  0.10610190  0.76245898     0.00000
C1726       C  0.97751815  0.12062245  0.74665123    -0.08400
C1727       C  0.95557094  0.10767065  0.72392609     0.61900
H1728       H  0.95891794  0.15947267  0.73879381     0.12600
H1729       H  0.54472347  0.11410045  0.78905801     0.12700
C1730       C  0.55425265  0.16978295  0.79128654     0.62200
F1731       F  0.93904055  0.12811794  0.70381811    -0.23000
F1732       F  0.93718551  0.08122485  0.75351833    -0.20300
F1733       F  0.96974705  0.10110952  0.69263979    -0.20000
F1734       F  0.54656172  0.17430575  0.82821657    -0.20000
F1735       F  0.56672842  0.19759090  0.75796414    -0.20800
F1736       F  0.57513027  0.15269542  0.79975288    -0.23000
C1737       C  0.43473261  0.26807576  0.88981254    -0.05900
C1738       C  0.43549767  0.24265096  0.92704907     0.00100
C1739       C  0.93804622  0.20922228  0.94001948    -0.08500
C1740       C  0.94021814  0.20815525  0.89902226    -0.05900
C1741       C  0.44423988  0.23995286  0.84623800     0.00000
C1742       C  0.43789240  0.26672858  0.84897595    -0.08400
C1743       C  0.43639025  0.29489013  0.81015304     0.61900
H1744       H  0.43535013  0.28999271  0.89200222     0.12600
H1745       H  0.94167803  0.18691683  0.89591139     0.12700
C1746       C  0.93230264  0.17965400  0.97929915     0.62200
F1747       F  0.45889117  0.31886378  0.80587189    -0.23000
F1748       F  0.41054668  0.30291661  0.81640782    -0.20300
F1749       F  0.43745171  0.29018024  0.77222537    -0.20000
F1750       F  0.92672863  0.18440163  0.01669344    -0.20000
F1751       F  0.95577104  0.16644541  0.98110759    -0.20400
F1752       F  0.90827426  0.15974068  0.97663550    -0.23000
C1753       C  0.04741313  0.28742931  0.57575604    -0.05900
C1754       C  0.56289659  0.26487177  0.57176763     0.00100
C1755       C  0.56678442  0.24073118  0.60899804    -0.08500
C1756       C  0.56873837  0.24571581  0.64712943    -0.05900
C1757       C  0.56502978  0.27342485  0.64859344     0.00000
C1758       C  0.05188590  0.29299551  0.61290834    -0.08400
C1759       C  0.05142462  0.32440402  0.61217374     0.61900
H1760       H  0.04279547  0.30539415  0.54782870     0.12600
H1761       H  0.56748752  0.22619902  0.67706604     0.12700
C1762       C  0.56479358  0.20855899  0.61110178     0.62200
F1763       F  0.07140123  0.34637574  0.57825270    -0.23000
F1764       F  0.05833508  0.32688298  0.65010380    -0.20300
F1765       F  0.02422660  0.33004051  0.60649794    -0.20000
F1766       F  0.56309634  0.20700119  0.57115482    -0.20000
F1767       F  0.54059399  0.18906450  0.63963584    -0.20400
F1768       F  0.58909232  0.19875430  0.62566385    -0.23000
C1769       C  0.00085185  0.35491491  0.45888632    -0.05900
C1770       C  0.48764863  0.33627220  0.99798496     0.00100
C1771       C  0.47277538  0.35594296  0.96945406    -0.08500
C1772       C  0.47403195  0.38512615  0.96993106    -0.05900
C1773       C  0.48924201  0.39481836  0.99851691     0.00000
C1774       C  0.00352348  0.38496816  0.45678049    -0.08400
C1775       C  0.02544779  0.41114698  0.42200726     0.61900
H1776       H  0.01498920  0.35105252  0.43597907     0.12600
H1777       H  0.46301590  0.40067829  0.94792469     0.12700
C1778       C  0.45506337  0.34564632  0.93967300     0.62200
F1779       F  0.03889592  0.40163592  0.39333377    -0.23000
F1780       F  0.95295802  0.38529633  0.06357270    -0.20300
F1781       F  0.01186217  0.43364551  0.39865353    -0.20000
F1782       F  0.47282009  0.33952387  0.91134434    -0.20000
F1783       F  0.44121376  0.36773666  0.91571399    -0.20400
F1784       F  0.43424070  0.31937715  0.96394371    -0.23000
C1785       C  0.99424916  0.11170370  0.03919448    -0.05900
C1786       C  0.00049541  0.10417919  0.50684928     0.00100
C1787       C  0.52963756  0.13636015  0.48184606    -0.08500
C1788       C  0.52690485  0.16472539  0.48249750    -0.05900
C1789       C  0.99728778  0.16121951  0.51034972     0.00000
C1790       C  0.99539678  0.13936446  0.04488587    -0.08400
C1791       C  0.97745663  0.13831540  0.08469018     0.61900
H1792       H  0.98014633  0.09059699  0.06195422     0.12600
H1793       H  0.53892410  0.18561200  0.45659122     0.12700
C1794       C  0.55090354  0.13532682  0.44714472     0.62200
F1795       F  0.96289541  0.10883177  0.11105397    -0.23000
F1796       F  0.95695264  0.15543249  0.07298451    -0.20300
F1797       F  0.98508799  0.15046535  0.60305910    -0.20000
F1798       F  0.53737677  0.11658224  0.42826369    -0.20000
F1799       F  0.57358372  0.12390921  0.46556058    -0.20400
F1800       F  0.56223093  0.16406875  0.41503621    -0.23000
O1801       O  0.98622178  0.78005990  0.51968562    -0.74500
O1802       O  0.98604148  0.70314272  0.03059662    -0.74600
O1803       O  0.01112921  0.74793150  0.05543034    -0.74600
O1804       O  0.96028537  0.73803316  0.48986394    -0.74700
O1805       O  0.47928757  0.75829853  0.43666681    -0.74600
O1806       O  0.55906387  0.76835879  0.01835499    -0.74600
O1807       O  0.53250081  0.72157824  0.99693647    -0.74500
O1808       O  0.50405345  0.80005027  0.46778190    -0.74600
Ni1809     Ni  0.97895018  0.74180109  0.02644276     1.25400
Ni1810     Ni  0.50780260  0.76011257  0.47337681     1.25400
C1811       C  0.48581539  0.80399475  0.49362075     0.87700
C1812       C  0.51751188  0.69828283  0.02943168     0.87600
C1813       C  0.03684585  0.76106650  0.03539480     0.87600
C1814       C  0.96857389  0.74583887  0.44959901     0.87800
O1815       O  0.55911045  0.76476452  0.23373409    -0.74500
O1816       O  0.49254930  0.74588485  0.31737359    -0.74600
O1817       O  0.52200085  0.71260713  0.28738072    -0.74600
O1818       O  0.52947095  0.79761240  0.26402299    -0.74700
O1819       O  0.99124633  0.79992186  0.20852205    -0.74600
O1820       O  0.98771060  0.71563681  0.22710179    -0.74600
O1821       O  0.95971647  0.74577007  0.26620362    -0.74500
O1822       O  0.01821503  0.77046027  0.16913538    -0.74600
Ni1823     Ni  0.52675349  0.75499742  0.27749957     1.25400
Ni1824     Ni  0.98796745  0.75792772  0.21618862     1.25400
C1825       C  0.55509877  0.77038703  0.19466982     0.87700
C1826       C  0.46734657  0.74514087  0.30609016     0.87600
C1827       C  0.50813719  0.70055976  0.26444183     0.87600
C1828       C  0.51493557  0.81315256  0.23717037     0.87800
O1829       O  0.93296009  0.99486276  0.46732146    -0.81000
O1830       O  0.55746702  0.98907251  0.47435407    -0.65700
O1831       O  0.97700381  0.98205449  0.99884169    -1.12300
C1832       C  0.01482638  0.58151170  0.00562290     1.05900
O1833       O  0.56652074  0.49618648  0.04365284    -0.78900
O1834       O  0.53330864  0.51504294  0.09538421    -0.66500
Ni1835     Ni  0.95137890  0.96190294  0.47192328     1.34900
C1836       C  0.50668863  0.50560084  0.11160324     0.84600
O1837       O  0.50965761  0.94405141  0.48636998    -0.79400
O1838       O  0.96838763  0.92793459  0.47676277    -0.89700
C1839       C  0.57348758  0.00267424  0.99958104     0.84200
O1840       O  0.96918238  0.98232564  0.41169829    -0.67900
O1841       O  0.54178186  0.57006519  0.02929065    -0.87200
C1842       C  0.99508141  0.99564712  0.39354265     0.85000
C1843       C  0.48610721  0.92497589  0.48936672     1.06600
H1844       H  0.52481987  0.53943114  0.47129514     0.38400
O1845       O  0.52106970  0.52409325  0.50027204    -1.09800
O1846       O  0.98818674  0.50543956  0.07169264    -0.66500
Ni1847     Ni  0.98587358  0.52131824  0.00770834     1.26300
O1848       O  0.51472845  0.00215220  0.42345275    -0.66700
O1849       O  0.99180345  0.56217583  0.00728640    -0.79000
C1850       C  0.92782958  0.50984641  0.49442720     0.84400
O1851       O  0.94508310  0.51515547  0.02230180    -0.66200
Ni1852     Ni  0.55338562  0.53278250  0.03645445     1.27400
Ni1853     Ni  0.51687088  0.98450176  0.48774537     1.26100
H1854       H  0.97230852  0.96636574  0.02810066     0.39000
O1855       O  0.93119581  0.99965057  0.21332553    -0.81000
O1856       O  0.55853528  0.00093122  0.21710024    -0.65700
O1857       O  0.97791010  0.98031211  0.25069459    -1.12300
C1858       C  0.01071247  0.57912570  0.26146789     1.05900
O1859       O  0.56872596  0.50156880  0.29234200    -0.78900
O1860       O  0.53283223  0.51936489  0.34241149    -0.66500
Ni1861     Ni  0.95023849  0.96665432  0.22001735     1.34900
C1862       C  0.50668526  0.50667384  0.35968855     0.84600
O1863       O  0.51668833  0.95088922  0.22984407    -0.79400
O1864       O  0.96757076  0.93275700  0.22633021    -0.89700
C1865       C  0.57366660  0.00285706  0.24610331     0.84200
O1866       O  0.96809912  0.98570317  0.15963027    -0.67900
O1867       O  0.53693456  0.57261628  0.27370650    -0.87200
C1868       C  0.99399700  0.99912431  0.14148025     0.85000
C1869       C  0.49558742  0.92976300  0.23087103     1.06600
H1870       H  0.52756749  0.53937901  0.22284801     0.38400
O1871       O  0.52385685  0.52386271  0.25192996    -1.09800
O1872       O  0.98702222  0.50223789  0.32365932    -0.66500
Ni1873     Ni  0.98495786  0.51940973  0.25982702     1.26300
O1874       O  0.51344276  0.00686545  0.17015008    -0.66700
O1875       O  0.98859880  0.55943619  0.26149579    -0.79000
C1876       C  0.92835307  0.50821690  0.24726121     0.84400
O1877       O  0.94429607  0.51109230  0.27487070    -0.66200
Ni1878     Ni  0.55192755  0.53667968  0.28290958     1.27400
Ni1879     Ni  0.51769234  0.98997235  0.23344222     1.26100
H1880       H  0.97508105  0.96439792  0.27934305     0.39000
O1881       O  0.71185761  0.50946050  0.51955727    -0.74500
O1882       O  0.79284605  0.51481015  0.51602511    -0.74600
O1883       O  0.75880703  0.54551427  0.46239224    -0.74600
O1884       O  0.74569264  0.47362203  0.08310284    -0.74700
O1885       O  0.74329268  0.95853815  0.02118424    -0.74600
O1886       O  0.74646875  0.99256816  0.44699150    -0.74600
O1887       O  0.78928318  0.99291232  0.96057384    -0.74500
O1888       O  0.70744214  0.98670569  0.96884849    -0.74600
Ni1889     Ni  0.75238424  0.51326915  0.51886148     1.25400
Ni1890     Ni  0.74819714  0.98862454  0.96341209     1.25400
C1891       C  0.69615605  0.48284003  0.01399419     0.87700
C1892       C  0.80470584  0.49870043  0.50030422     0.87600
C1893       C  0.75871401  0.53899036  0.42901387     0.87600
C1894       C  0.74392463  0.44553903  0.08886613     0.87800
O1895       O  0.71732971  0.51317674  0.21850671    -0.74500
O1896       O  0.79815342  0.52233207  0.22443273    -0.74600
O1897       O  0.75916911  0.48724531  0.19871825    -0.74600
O1898       O  0.75716385  0.54861708  0.24374214    -0.74700
O1899       O  0.74261261  0.00926509  0.30358368    -0.74600
O1900       O  0.74229819  0.95811340  0.24105658    -0.74600
O1901       O  0.78280320  0.98628825  0.27418307    -0.74500
O1902       O  0.70244603  0.98142509  0.27012692    -0.74600
Ni1903     Ni  0.75822421  0.51909304  0.21890126     1.25400
Ni1904     Ni  0.74220727  0.98234567  0.27443496     1.25400
C1905       C  0.69425291  0.00157360  0.23896638     0.87700
C1906       C  0.80149102  0.00815551  0.24506150     0.87600
C1907       C  0.74740387  0.97096276  0.19993609     0.87600
C1908       C  0.74809482  0.03843138  0.28388979     0.87800
C1909       C  0.78343334  0.56899393  0.31565597    -0.05900
C1910       C  0.75592901  0.56240248  0.30447837     0.00100
C1911       C  0.72310735  0.05156281  0.33775930    -0.08500
C1912       C  0.72407811  0.04400836  0.38186064    -0.05900
C1913       C  0.76106991  0.56261368  0.38570942     0.00000
C1914       C  0.78641317  0.56949192  0.35640888    -0.08400
C1915       C  0.81580126  0.57022178  0.37082300     0.61900
H1916       H  0.80211248  0.56837999  0.29598585     0.12600
H1917       H  0.70402716  0.03550387  0.40425703     0.12700
C1918       C  0.69407135  0.04940063  0.32200730     0.62200
F1919       F  0.83679655  0.59117412  0.33742297    -0.23000
F1920       F  0.82763679  0.07577532  0.35328080    -0.20300
F1921       F  0.81675410  0.57875050  0.40563797    -0.20000
F1922       F  0.67833238  0.06636362  0.33572406    -0.20000
F1923       F  0.70281325  0.56299303  0.27381917    -0.20400
F1924       F  0.69716531  0.06070066  0.27731995    -0.23000
C1925       C  0.76973450  0.94797310  0.11206134    -0.05900
C1926       C  0.74665287  0.42444145  0.13199601     0.00100
C1927       C  0.72300980  0.41473727  0.16510026    -0.08500
C1928       C  0.72685111  0.42179581  0.20128692    -0.05900
C1929       C  0.75416295  0.43649802  0.20506367     0.00000
C1930       C  0.77192566  0.95266378  0.15033883    -0.08400
C1931       C  0.80131216  0.96047496  0.16329560     0.61900
H1932       H  0.78922849  0.95252549  0.09009717     0.12600
H1933       H  0.70808606  0.41909475  0.22362897     0.12700
C1934       C  0.69351956  0.39899565  0.16137182     0.62200
F1935       F  0.80694376  0.99003121  0.16153245    -0.23000
F1936       F  0.82327658  0.95830219  0.13632823    -0.20300
F1937       F  0.80162043  0.94036105  0.20499872    -0.20000
F1938       F  0.69451160  0.39131808  0.12579128    -0.20000
F1939       F  0.67449399  0.41789054  0.15800733    -0.20400
F1940       F  0.68363410  0.37230731  0.19791379    -0.23000
C1941       C  0.62509457  0.50375183  0.21805494    -0.05900
C1942       C  0.60341206  0.99841813  0.24430517     0.00100
C1943       C  0.61513526  0.98397645  0.28223425    -0.08500
C1944       C  0.64487137  0.98552789  0.27869013    -0.05900
C1945       C  0.66292990  0.99971349  0.23860020     0.00000
C1946       C  0.65465071  0.50363519  0.21303936    -0.08400
C1947       C  0.67131204  0.51615782  0.16762770     0.61900
H1948       H  0.61540426  0.51547086  0.19022213     0.12600
H1949       H  0.65428786  0.97612869  0.30778841     0.12700
C1950       C  0.59661399  0.96657390  0.32638778     0.62200
F1951       F  0.65309568  0.52176866  0.13660175    -0.23000
F1952       F  0.68587290  0.49498083  0.16318761    -0.20300
F1953       F  0.69074788  0.54340458  0.15945272    -0.20000
F1954       F  0.57112473  0.94910982  0.32283819    -0.20000
F1955       F  0.59041436  0.98689701  0.34379036    -0.20400
F1956       F  0.61062787  0.94682364  0.35487955    -0.23000
C1957       C  0.87375218  0.99749089  0.28434075    -0.05900
C1958       C  0.89874045  0.51267005  0.25090195     0.00100
C1959       C  0.88654000  0.52822410  0.21432400    -0.08500
C1960       C  0.85660566  0.52505011  0.21856404    -0.05900
C1961       C  0.83860152  0.50859673  0.25862211     0.00000
C1962       C  0.84392744  0.99633586  0.28637601    -0.08400
C1963       C  0.82481913  0.98042064  0.33016518     0.61900
H1964       H  0.88236335  0.98523340  0.31307398     0.12600
H1965       H  0.84725879  0.53544117  0.18971129     0.12700
C1966       C  0.90424853  0.54795584  0.17027729     0.62200
F1967       F  0.84092536  0.97332972  0.36377371    -0.23000
F1968       F  0.80733185  0.95335049  0.33280963    -0.20300
F1969       F  0.80793236  0.99940801  0.33598208    -0.20000
F1970       F  0.90330460  0.53112821  0.14487708    -0.20000
F1971       F  0.93269111  0.55857003  0.17335102    -0.20400
F1972       F  0.89309183  0.57334749  0.15020015    -0.23000
C1973       C  0.61037807  0.96429031  0.49711680    -0.05900
C1974       C  0.60482839  0.00313229  0.99597855     0.00100
C1975       C  0.63001619  0.51641800  0.99798727    -0.08500
C1976       C  0.65857805  0.51279393  0.99922180    -0.05900
C1977       C  0.66434425  0.00202661  0.98718181     0.00000
C1978       C  0.63842367  0.95919243  0.50106809    -0.08400
C1979       C  0.64520607  0.93134265  0.49523671     0.61900
H1980       H  0.59349127  0.94754022  0.49319146     0.12600
H1981       H  0.67600296  0.53263488  0.99211669     0.12700
C1982       C  0.62392346  0.54795402  0.98776352     0.62200
F1983       F  0.62133632  0.91383562  0.48766599    -0.23000
F1984       F  0.65430130  0.91291009  0.53202338    -0.20300
F1985       F  0.66649836  0.94071400  0.45996700    -0.20000
F1986       F  0.60723342  0.54797539  0.02286822    -0.20000
F1987       F  0.60938644  0.55566802  0.95245810    -0.20400
F1988       F  0.64907071  0.57035152  0.97827649    -0.23000
C1989       C  0.85357936  0.52727569  0.50106046    -0.05900
C1990       C  0.83621732  0.50046363  0.50035149     0.00100
C1991       C  0.84336492  0.96358686  0.50510624    -0.08500
C1992       C  0.87354131  0.96823623  0.50339682    -0.05900
C1993       C  0.89641247  0.50712467  0.50027502     0.00000
C1994       C  0.88360719  0.53100686  0.50115772    -0.08400
C1995       C  0.90165926  0.56045492  0.50096375     0.61900
H1996       H  0.84350563  0.54562863  0.50089440     0.12600
H1997       H  0.88466869  0.95247670  0.49673591     0.12700
C1998       C  0.82725959  0.93577407  0.49829886     0.62200
F1999       F  0.88521570  0.58163831  0.49886346    -0.23000
F2000       F  0.92327367  0.57352802  0.46559277    -0.20300
F2001       F  0.91492508  0.54991503  0.04586499    -0.20000
F2002       F  0.81580472  0.94522459  0.46011086    -0.20000
F2003       F  0.80472917  0.94557653  0.02339402    -0.20400
F2004       F  0.84308197  0.93002955  0.00544841    -0.23000
C2005       C  0.52251058  0.88852571  0.25395562    -0.05900
C2006       C  0.50190967  0.90114271  0.22956720     0.00100
C2007       C  0.98426318  0.88745394  0.19613484    -0.08500
C2008       C  0.98923972  0.85941790  0.19747875    -0.05900
C2009       C  0.51391038  0.84501013  0.23253717     0.00000
C2010       C  0.52844348  0.86036449  0.25683600    -0.08400
C2011       C  0.54941578  0.84720565  0.28682405     0.61900
H2012       H  0.53299782  0.90035786  0.27252061     0.12600
H2013       H  0.97711744  0.84825465  0.17948099     0.12700
C2014       C  0.96409914  0.90264276  0.16625145     0.62200
F2015       F  0.53492044  0.82045417  0.32071429    -0.23000
F2016       F  0.56214865  0.86713020  0.30457486    -0.20300
F2017       F  0.57132934  0.84144092  0.26410673    -0.20000
F2018       F  0.97804352  0.93240312  0.13988823    -0.20000
F2019       F  0.93923769  0.90258159  0.18991206    -0.20400
F2020       F  0.95571906  0.88755180  0.13991944    -0.23000
C2021       C  0.98820523  0.65580905  0.23306737    -0.05900
C2022       C  0.50860060  0.66843538  0.26958810     0.00100
C2023       C  0.53053021  0.65332635  0.28769563    -0.08500
C2024       C  0.53008366  0.62395647  0.28826495    -0.05900
C2025       C  0.00735772  0.60979085  0.25922398     0.00000
C2026       C  0.98883656  0.62652132  0.23381410    -0.08400
C2027       C  0.97055499  0.61422177  0.20627049     0.61900
H2028       H  0.97396923  0.66851561  0.21394550     0.12600
H2029       H  0.54665292  0.61240723  0.30209589     0.12700
C2030       C  0.55472077  0.66776201  0.30610861     0.62200
F2031       F  0.95748257  0.63595646  0.17951390    -0.23000
F2032       F  0.94897424  0.58937590  0.23254329    -0.20300
F2033       F  0.98773107  0.60543849  0.18048425    -0.20000
F2034       F  0.54320966  0.67173076  0.34183318    -0.20000
F2035       F  0.56971847  0.69568859  0.27513408    -0.20800
F2036       F  0.57448390  0.64969240  0.31925418    -0.23000
C2037       C  0.43393575  0.76925495  0.38394351    -0.05900
C2038       C  0.43330766  0.74276253  0.42021736     0.00100
C2039       C  0.94180509  0.71270259  0.41671891    -0.08500
C2040       C  0.94260865  0.71278952  0.37505176    -0.05900
C2041       C  0.44354724  0.74270167  0.33801624     0.00000
C2042       C  0.43890322  0.76964455  0.34231261    -0.08400
C2043       C  0.44342812  0.80021385  0.30481855     0.61900
H2044       H  0.43546760  0.79076465  0.38775489     0.12600
H2045       H  0.94310845  0.69180187  0.37056538     0.12700
C2046       C  0.93652158  0.68219034  0.45457769     0.62200
F2047       F  0.46823106  0.81934365  0.30680229    -0.23000
F2048       F  0.42024021  0.81320430  0.30779808    -0.20300
F2049       F  0.44567079  0.79763061  0.26538944    -0.20000
F2050       F  0.95876328  0.66791404  0.45193596    -0.20000
F2051       F  0.91081807  0.66393615  0.45331125    -0.20400
F2052       F  0.93420063  0.68512902  0.49373327    -0.23000
C2053       C  0.06322167  0.79803580  0.05979526    -0.05900
C2054       C  0.57541941  0.76761942  0.08402353     0.00100
C2055       C  0.58068540  0.74352469  0.12009492    -0.08500
C2056       C  0.58281424  0.74781234  0.15871906    -0.05900
C2057       C  0.57872675  0.77509833  0.16117158     0.00000
C2058       C  0.06625358  0.80274877  0.09797837    -0.08400
C2059       C  0.06691898  0.83425993  0.09756849     0.61900
H2060       H  0.05960395  0.81653633  0.03162644     0.12600
H2061       H  0.58186286  0.72804656  0.18827310     0.12700
C2062       C  0.58067272  0.71223185  0.12019401     0.62200
F2063       F  0.04171965  0.84297910  0.08527817    -0.23000
F2064       F  0.09018810  0.85498200  0.06825682    -0.20300
F2065       F  0.06981750  0.83509459  0.13768944    -0.20000
F2066       F  0.60556568  0.70370372  0.13433690    -0.20000
F2067       F  0.57994879  0.71200793  0.07937026    -0.20400
F2068       F  0.55691897  0.69110964  0.14789664    -0.23000
C2069       C  0.98177248  0.84147084  0.02026214    -0.05900
C2070       C  0.48638411  0.83550303  0.49110932     0.00100
C2071       C  0.48917892  0.86109273  0.45135291    -0.08500
C2072       C  0.48895469  0.88994641  0.45234028    -0.05900
C2073       C  0.48773977  0.89429622  0.49115570     0.00000
C2074       C  0.98161399  0.87052376  0.02026727    -0.08400
C2075       C  0.97504237  0.87422883  0.06229941     0.61900
H2076       H  0.97915631  0.82203560  0.05072594     0.12600
H2077       H  0.49016496  0.90961143  0.42258899     0.12700
C2078       C  0.49253228  0.85824863  0.40801107     0.62200
F2079       F  0.97123964  0.84688135  0.09781598    -0.23000
F2080       F  0.96745137  0.88351396  0.56689538    -0.20300
F2081       F  0.99750621  0.89519486  0.06640102    -0.20000
F2082       F  0.47107501  0.83467772  0.40798811    -0.20000
F2083       F  0.51929469  0.85246750  0.40026758    -0.20400
F2084       F  0.49069816  0.88484154  0.37428337    -0.23000
C2085       C  0.99706931  0.60789757  0.54147023    -0.05900
C2086       C  0.01215815  0.61217353  0.00331700     0.00100
C2087       C  0.53954596  0.63564497  0.00016405    -0.08500
C2088       C  0.53873288  0.66379665  0.00307814    -0.05900
C2089       C  0.00594685  0.66924538  0.00483932     0.00000
C2090       C  0.99526653  0.63618123  0.54329996    -0.08400
C2091       C  0.97616301  0.63574140  0.58159633     0.61900
H2092       H  0.98490241  0.58663251  0.56659571     0.12600
H2093       H  0.55478899  0.68405375  0.98241441     0.12700
C2094       C  0.56390098  0.63432603  0.96985183     0.62200
F2095       F  0.96376423  0.60620631  0.61071313    -0.23000
F2096       F  0.95381931  0.64976750  0.56774403    -0.20300
F2097       F  0.98727186  0.65484493  0.09794794    -0.20000
F2098       F  0.55314451  0.61815325  0.94592585    -0.20000
F2099       F  0.58345720  0.62012213  0.99369318    -0.20400
F2100       F  0.57861537  0.66324269  0.94118135    -0.23000
O2101       O  0.97417595  0.78225721  0.01738027    -0.74500
O2102       O  0.99230231  0.69915920  0.53271819    -0.74600
O2103       O  0.01799230  0.74075391  0.56269600    -0.74600
O2104       O  0.94868799  0.73675420  0.99340398    -0.74700
O2105       O  0.49672173  0.75639485  0.95641829    -0.74600
O2106       O  0.53384535  0.76014027  0.51422634    -0.74600
O2107       O  0.50925278  0.71906986  0.48291006    -0.74500
O2108       O  0.52258665  0.80257903  0.97818155    -0.74600
Ni2109     Ni  0.98801396  0.73882274  0.52830789     1.25400
Ni2110     Ni  0.52886605  0.76288438  0.98531601     1.25400
C2111       C  0.50535667  0.80606720  0.00593227     0.87700
C2112       C  0.49192745  0.69566805  0.51204272     0.87600
C2113       C  0.04457937  0.75261502  0.54615878     0.87600
C2114       C  0.95460679  0.74514748  0.95257318     0.87800
O2115       O  0.54223279  0.75662395  0.73536784    -0.74500
O2116       O  0.48850145  0.73890755  0.83605069    -0.74600
O2117       O  0.51193616  0.70527578  0.79915413    -0.74600
O2118       O  0.51892098  0.79069536  0.77265051    -0.74700
O2119       O  0.99428006  0.79617889  0.71461996    -0.74600
O2120       O  0.98432299  0.71111512  0.73759971    -0.74600
O2121       O  0.95865803  0.74463318  0.77285231    -0.74500
O2122       O  0.01894571  0.76324832  0.68026601    -0.74600
Ni2123     Ni  0.51669820  0.74792256  0.78722011     1.25400
Ni2124     Ni  0.98785843  0.75387330  0.72485796     1.25400
C2125       C  0.53195081  0.75864457  0.70058101     0.87700
C2126       C  0.46145912  0.73664316  0.83369350     0.87600
C2127       C  0.49333531  0.69151214  0.78313261     0.87600
C2128       C  0.50085764  0.80458333  0.75154962     0.87800
O2129       O  0.93792455  0.00878758  0.95367627    -0.81000
O2130       O  0.55830956  0.99727542  0.97238547    -0.65700
O2131       O  0.97903408  0.97514725  0.50326504    -1.12300
C2132       C  0.01574511  0.57518742  0.51009297     1.05900
O2133       O  0.56327816  0.50133100  0.54228656    -0.78900
O2134       O  0.52956665  0.52148732  0.59029552    -0.66500
Ni2135     Ni  0.94932358  0.97094554  0.96619665     1.34900
C2136       C  0.50365073  0.50827879  0.60783455     0.84600
O2137       O  0.51484564  0.94738120  0.98879619    -0.79400
O2138       O  0.96059016  0.93293992  0.97805621    -0.89700
C2139       C  0.57290133  0.99220643  0.50250947     0.84200
O2140       O  0.96960516  0.98551410  0.90805553    -0.67900
O2141       O  0.53392495  0.57340364  0.52051670    -0.87200
C2142       C  0.99576447  0.99814187  0.89131743     0.85000
C2143       C  0.49343893  0.92684280  0.98916689     1.06600
H2144       H  0.53029717  0.53950625  0.97442829     0.38400
O2145       O  0.52522494  0.52360163  0.00302828    -1.09800
O2146       O  0.98436269  0.49998885  0.57455509    -0.66500
Ni2147     Ni  0.98384444  0.51681406  0.51019852     1.26300
O2148       O  0.51413419  0.00233238  0.92311108    -0.66700
O2149       O  0.99199963  0.55726332  0.51086240    -0.79000
C2150       C  0.92905285  0.50944918  0.99628797     0.84400
O2151       O  0.94324022  0.51363021  0.52221744    -0.66200
Ni2152     Ni  0.54852604  0.53732004  0.53125046     1.27400
Ni2153     Ni  0.51707005  0.98809254  0.98689523     1.26100
H2154       H  0.97596952  0.95909177  0.53211966     0.39000
O2155       O  0.93439290  0.99716648  0.71482067    -0.81000
O2156       O  0.55780284  0.99140895  0.72463547    -0.65700
O2157       O  0.98027979  0.97827435  0.75239078    -1.12300
C2158       C  0.00425558  0.57613780  0.76168350     1.05900
O2159       O  0.56545637  0.50501288  0.78744702    -0.78900
O2160       O  0.53009666  0.51914753  0.84174293    -0.66500
Ni2161     Ni  0.95253886  0.96344778  0.72340557     1.34900
C2162       C  0.50432486  0.50576177  0.86013507     0.84600
O2163       O  0.51150873  0.94494427  0.73728259    -0.79400
O2164       O  0.96953667  0.92906672  0.73215413    -0.89700
C2165       C  0.57358574  0.99370471  0.75289908     0.84200
O2166       O  0.97049968  0.98100875  0.66323518    -0.67900
O2167       O  0.53059372  0.57261881  0.77685022    -0.87200
C2168       C  0.99616325  0.99495578  0.64447887     0.85000
C2169       C  0.48882215  0.92538001  0.73857278     1.06600
H2170       H  0.52247652  0.54157047  0.72257454     0.38400
O2171       O  0.51960313  0.52532398  0.75099831    -1.09800
O2172       O  0.98506112  0.49999929  0.82496374    -0.66500
Ni2173     Ni  0.98020741  0.51550476  0.76202053     1.26300
O2174       O  0.51466439  0.00172870  0.67422451    -0.66700
O2175       O  0.98245126  0.55542448  0.76365515    -0.79000
C2176       C  0.92306083  0.50148235  0.75274582     0.84400
O2177       O  0.93934494  0.50530186  0.77962539    -0.66200
Ni2178     Ni  0.54750478  0.53853440  0.78161803     1.27400
Ni2179     Ni  0.51681829  0.98531151  0.73814140     1.26100
H2180       H  0.97752262  0.96282651  0.78138867     0.39000
O2181       O  0.71117525  0.50150956  0.02741411    -0.74500
O2182       O  0.79256120  0.50835824  0.02482693    -0.74600
O2183       O  0.75806582  0.53585890  0.96885146    -0.74600
O2184       O  0.74547088  0.47873254  0.57267190    -0.74700
O2185       O  0.73556547  0.93032799  0.56082046    -0.74600
O2186       O  0.75322840  0.02115116  0.90787083    -0.74600
O2187       O  0.78191236  0.96488822  0.50064837    -0.74500
O2188       O  0.70046943  0.95882549  0.50592135    -0.74600
Ni2189     Ni  0.75190128  0.50603585  0.02715358     1.25400
Ni2190     Ni  0.74098252  0.96030810  0.50275047     1.25400
C2191       C  0.69639985  0.49211550  0.50454316     0.87700
C2192       C  0.80478113  0.49132043  0.01146938     0.87600
C2193       C  0.75814007  0.52712290  0.93746561     0.87600
C2194       C  0.74187132  0.45108430  0.57546091     0.87800
O2195       O  0.71287008  0.50801687  0.71837092    -0.74500
O2196       O  0.79252618  0.51029041  0.72499675    -0.74600
O2197       O  0.75091158  0.47936266  0.69630237    -0.74600
O2198       O  0.75419318  0.53793663  0.74818881    -0.74700
O2199       O  0.74304122  0.00666829  0.80144369    -0.74600
O2200       O  0.74117496  0.93735914  0.77209193    -0.74600
O2201       O  0.78304271  0.97651646  0.78935579    -0.74500
O2202       O  0.70161825  0.96817137  0.78405606    -0.74600
Ni2203     Ni  0.75306511  0.51019594  0.71951654     1.25400
Ni2204     Ni  0.74189860  0.97102877  0.78929935     1.25400
C2205       C  0.69289566  0.98306447  0.74869643     0.87700
C2206       C  0.80114139  0.99430215  0.75556779     0.87600
C2207       C  0.74527987  0.94236906  0.73196435     0.87600
C2208       C  0.74840818  0.03375643  0.77185956     0.87800
C2209       C  0.77842660  0.55732906  0.82058526    -0.05900
C2210       C  0.75054629  0.54768541  0.81262002     0.00100
C2211       C  0.72637370  0.06253232  0.80753080    -0.08500
C2212       C  0.72965107  0.06927717  0.84419683    -0.05900
C2213       C  0.75831716  0.54834316  0.89328055     0.00000
C2214       C  0.78280519  0.55634237  0.86182635    -0.08400
C2215       C  0.81309579  0.56070633  0.87331589     0.61900
H2216       H  0.79672921  0.55984880  0.79760683     0.12600
H2217       H  0.71060011  0.06632547  0.86615680     0.12700
C2218       C  0.69669234  0.05504095  0.79542163     0.62200
F2219       F  0.83393381  0.56925458  0.83766382    -0.23000
F2220       F  0.82350373  0.06090984  0.85179283    -0.20300
F2221       F  0.81737926  0.58342398  0.88926928    -0.20000
F2222       F  0.68776525  0.02385300  0.80679664    -0.20000
F2223       F  0.69333162  0.53466988  0.79498187    -0.20400
F2224       F  0.67646863  0.06435266  0.81599545    -0.23000
C2225       C  0.76181800  0.91605215  0.65066226    -0.05900
C2226       C  0.73790920  0.42695717  0.61867676     0.00100
C2227       C  0.71179182  0.42110957  0.64577979    -0.08500
C2228       C  0.71332741  0.42373965  0.68550224    -0.05900
C2229       C  0.74017164  0.42907311  0.69910517     0.00000
C2230       C  0.76548936  0.91568638  0.69172005    -0.08400
C2231       C  0.79572841  0.92191952  0.70238638     0.61900
H2232       H  0.78079005  0.92114434  0.62724948     0.12600
H2233       H  0.69418293  0.42534710  0.70307463     0.12700
C2234       C  0.68270238  0.41627905  0.63107371     0.62200
F2235       F  0.80769338  0.95305476  0.68406873    -0.23000
F2236       F  0.81290569  0.90711911  0.68643778    -0.20300
F2237       F  0.79521591  0.91137894  0.74669113    -0.20000
F2238       F  0.68480956  0.41106957  0.59345350    -0.20000
F2239       F  0.67128693  0.44171478  0.62403760    -0.20400
F2240       F  0.66416489  0.39099225  0.66282387    -0.23000
C2241       C  0.62180154  0.50512178  0.71442061    -0.05900
C2242       C  0.60249950  0.98602560  0.75264089     0.00100
C2243       C  0.61428427  0.97300897  0.79116068    -0.08500
C2244       C  0.64341244  0.97120385  0.78801953    -0.05900
C2245       C  0.66125457  0.98161957  0.74800947     0.00000
C2246       C  0.65111729  0.50407499  0.71039544    -0.08400
C2247       C  0.66910556  0.51935120  0.66566043     0.61900
H2248       H  0.61259333  0.51693172  0.68609092     0.12600
H2249       H  0.65279690  0.96293328  0.81739644     0.12700
C2250       C  0.59664026  0.96136191  0.83579750     0.62200
F2251       F  0.65217867  0.52828090  0.63339978    -0.23000
F2252       F  0.68369683  0.49926696  0.65779867    -0.20300
F2253       F  0.68864170  0.54531537  0.66275927    -0.20000
F2254       F  0.56967286  0.94425445  0.83677410    -0.20000
F2255       F  0.59358824  0.98581854  0.84626093    -0.20400
F2256       F  0.60983643  0.94274169  0.86721330    -0.23000
C2257       C  0.87663691  0.99339919  0.78946551    -0.05900
C2258       C  0.89279330  0.50407328  0.75712423     0.00100
C2259       C  0.88112931  0.52187439  0.72144962    -0.08500
C2260       C  0.85110062  0.51639822  0.72324032    -0.05900
C2261       C  0.83210494  0.49566053  0.76077233     0.00000
C2262       C  0.84647135  0.99070028  0.79395157    -0.08400
C2263       C  0.82978126  0.97971685  0.83900897     0.61900
H2264       H  0.88704187  0.98493121  0.81779232     0.12600
H2265       H  0.84256802  0.52914247  0.69469479     0.12700
C2266       C  0.89930159  0.54744003  0.68123324     0.62200
F2267       F  0.84812009  0.97771177  0.86966179    -0.23000
F2268       F  0.81211362  0.95102320  0.85014533    -0.20300
F2269       F  0.81330637  0.00017329  0.84042115    -0.20000
F2270       F  0.89717945  0.53916481  0.64631802    -0.20000
F2271       F  0.92811052  0.55448713  0.68548774    -0.20400
F2272       F  0.88905016  0.57373764  0.67292500    -0.23000
C2273       C  0.61475942  0.98420972  0.97799152    -0.05900
C2274       C  0.60328611  0.99048701  0.49935269     0.00100
C2275       C  0.62617008  0.51441601  0.52383478    -0.08500
C2276       C  0.65467742  0.51087014  0.52340178    -0.05900
C2277       C  0.65927792  0.98055218  0.51007416     0.00000
C2278       C  0.64413422  0.98314489  0.97327672    -0.08400
C2279       C  0.65292420  0.96192891  0.95343532     0.61900
H2280       H  0.59905166  0.96993229  0.96785959     0.12600
H2281       H  0.66935241  0.52346152  0.53712093     0.12700
C2282       C  0.61821364  0.53868787  0.53834170     0.62200
F2283       F  0.62952767  0.94586489  0.94278813    -0.23000
F2284       F  0.66524218  0.94066810  0.98257388    -0.20300
F2285       F  0.67234245  0.97882331  0.91592836    -0.20000
F2286       F  0.60014680  0.52508338  0.57757189    -0.20000
F2287       F  0.60470953  0.55735948  0.50749127    -0.20400
F2288       F  0.64232663  0.55730702  0.54343906    -0.23000
C2289       C  0.85315226  0.52119047  0.01242936    -0.05900
C2290       C  0.83661666  0.49438243  0.01042134     0.00100
C2291       C  0.84707742  0.98417707  0.98530679    -0.08500
C2292       C  0.87658399  0.98627604  0.98876410    -0.05900
C2293       C  0.89745390  0.50476903  0.00447525     0.00000
C2294       C  0.88347055  0.52675911  0.00960317    -0.08400
C2295       C  0.90060216  0.55635309  0.01029458     0.61900
H2296       H  0.84223947  0.53824820  0.01528945     0.12600
H2297       H  0.88581720  0.96661877  0.99338129     0.12700
C2298       C  0.82823038  0.95321305  0.99199825     0.62200
F2299       F  0.88299057  0.57565705  0.01258970    -0.23000
F2300       F  0.92059883  0.57168779  0.97308931    -0.20300
F2301       F  0.91402930  0.55419237  0.53837083    -0.20000
F2302       F  0.81870593  0.95411765  0.95384782    -0.20000
F2303       F  0.80541448  0.91846572  0.53261141    -0.20400
F2304       F  0.84519251  0.91684452  0.49552166    -0.23000
C2305       C  0.51375729  0.88239782  0.76207104    -0.05900
C2306       C  0.49216092  0.89495457  0.74019773     0.00100
C2307       C  0.98145352  0.87901194  0.71107347    -0.08500
C2308       C  0.98775312  0.85202635  0.71052340    -0.05900
C2309       C  0.50045617  0.83674329  0.74621255     0.00000
C2310       C  0.51886154  0.85400591  0.76458637    -0.08400
C2311       C  0.54419327  0.84340580  0.78604110     0.61900
H2312       H  0.52674019  0.89516905  0.77742455     0.12600
H2313       H  0.97242816  0.83790051  0.69973931     0.12700
C2314       C  0.95392871  0.88745581  0.69446043     0.62200
F2315       F  0.53429561  0.81747495  0.82358975    -0.23000
F2316       F  0.56073547  0.86552204  0.79691759    -0.20300
F2317       F  0.56208448  0.83727540  0.75783653    -0.20000
F2318       F  0.96022731  0.91710656  0.66361256    -0.20000
F2319       F  0.93410543  0.88459254  0.72847210    -0.20400
F2320       F  0.94086084  0.86860063  0.67532908    -0.23000
C2321       C  0.97998556  0.65061329  0.74497563    -0.05900
C2322       C  0.49404811  0.66021907  0.78594530     0.00100
C2323       C  0.50618361  0.63923850  0.81814251    -0.08500
C2324       C  0.50950935  0.61214273  0.81371300    -0.05900
C2325       C  0.00007506  0.60534504  0.76394108     0.00000
C2326       C  0.97998712  0.62191703  0.74305577    -0.08400
C2327       C  0.95951838  0.61010940  0.71742871     0.61900
H2328       H  0.96470807  0.66336563  0.72900352     0.12600
H2329       H  0.51973962  0.59634625  0.83686239     0.12700
C2330       C  0.51432567  0.64421567  0.85811138     0.62200
F2331       F  0.94506149  0.63181369  0.69409852    -0.23000
F2332       F  0.93916223  0.58459373  0.74521505    -0.20300
F2333       F  0.97495330  0.60237715  0.68853550    -0.20000
F2334       F  0.49174924  0.65158848  0.87711586    -0.20000
F2335       F  0.53889237  0.66740018  0.84745759    -0.20800
F2336       F  0.51982924  0.61800261  0.88843435    -0.23000
C2337       C  0.44442824  0.76335225  0.91583221    -0.05900
C2338       C  0.44856716  0.73808306  0.95054835     0.00100
C2339       C  0.92967254  0.71000405  0.92313491    -0.08500
C2340       C  0.93722364  0.71019194  0.88213356    -0.05900
C2341       C  0.44250420  0.73398137  0.87153433     0.00000
C2342       C  0.43980237  0.76116087  0.87648573    -0.08400
C2343       C  0.43422419  0.78875120  0.84060876     0.61900
H2344       H  0.44787246  0.78553376  0.91774514     0.12600
H2345       H  0.94050851  0.68938976  0.87922009     0.12700
C2346       C  0.92228874  0.67998180  0.96196936     0.62200
F2347       F  0.45722985  0.81350968  0.83061157    -0.23000
F2348       F  0.40955253  0.79580090  0.85460736    -0.20300
F2349       F  0.42990582  0.78349289  0.80370819    -0.20000
F2350       F  0.90024365  0.66000221  0.95507269    -0.20000
F2351       F  0.91298151  0.68379561  0.99894317    -0.20400
F2352       F  0.94620195  0.66733903  0.96808372    -0.23000
C2353       C  0.07009530  0.78801880  0.57359260    -0.05900
C2354       C  0.54353845  0.75279906  0.58539223     0.00100
C2355       C  0.54495798  0.72682488  0.62202165    -0.08500
C2356       C  0.54803664  0.73037279  0.66108941    -0.05900
C2357       C  0.54981047  0.75911867  0.66314930     0.00000
C2358       C  0.07023618  0.79274476  0.61211244    -0.08400
C2359       C  0.07130571  0.82474548  0.61000284     0.61900
H2360       H  0.06909860  0.80695335  0.54398638     0.12600
H2361       H  0.54459642  0.71024095  0.69095461     0.12700
C2362       C  0.54168700  0.69560679  0.61995291     0.62200
F2363       F  0.09645858  0.84421458  0.58406108    -0.23000
F2364       F  0.07090864  0.82598037  0.65033718    -0.20300
F2365       F  0.04790624  0.83485299  0.59228614    -0.20000
F2366       F  0.56071158  0.69786648  0.58544175    -0.20000
F2367       F  0.51382612  0.68500459  0.61449428    -0.20400
F2368       F  0.54782899  0.67438695  0.65725441    -0.23000
C2369       C  0.99858986  0.84031093  0.52232330    -0.05900
C2370       C  0.50249984  0.83724422  0.00046137     0.00100
C2371       C  0.48938572  0.85529602  0.96670694    -0.08500
C2372       C  0.48815299  0.88499550  0.96308449    -0.05900
C2373       C  0.49828480  0.89652495  0.99324679     0.00000
C2374       C  0.99685029  0.86927450  0.52151611    -0.08400
C2375       C  0.99284667  0.87401932  0.56337460     0.61900
H2376       H  0.99838129  0.82169799  0.55284039     0.12600
H2377       H  0.47835122  0.89920849  0.93730685     0.12700
C2378       C  0.47446589  0.84223347  0.93716258     0.62200
F2379       F  0.99132752  0.84741005  0.59924862    -0.23000
F2380       F  0.94987987  0.88466665  0.06222339    -0.20300
F2381       F  0.01579611  0.89613674  0.56358394    -0.20000
F2382       F  0.45255229  0.81720586  0.96197130    -0.20000
F2383       F  0.49389447  0.83326792  0.91484978    -0.20400
F2384       F  0.46235168  0.86329394  0.90721275    -0.23000
C2385       C  0.99239225  0.61327769  0.03498810    -0.05900
C2386       C  0.01469936  0.60602467  0.50816684     0.00100
C2387       C  0.52329542  0.63608129  0.48812296    -0.08500
C2388       C  0.51820800  0.66358864  0.48854406    -0.05900
C2389       C  0.01169580  0.66381007  0.50967702     0.00000
C2390       C  0.98976222  0.64113236  0.03762913    -0.08400
C2391       C  0.97082024  0.63985282  0.07659333     0.61900
H2392       H  0.97979398  0.59173778  0.05899439     0.12600
H2393       H  0.53285388  0.68475253  0.46723756     0.12700
C2394       C  0.54813663  0.63699721  0.45643801     0.62200
F2395       F  0.95938841  0.61011960  0.10565275    -0.23000
F2396       F  0.94791205  0.65324441  0.06389543    -0.20300
F2397       F  0.99246695  0.65059267  0.60325952    -0.20000
F2398       F  0.56132576  0.66662407  0.42836097    -0.20000
F2399       F  0.53786322  0.62097136  0.43195027    -0.20400
F2400       F  0.56905281  0.62423847  0.47847178    -0.23000
loop_ 
_geom_bond_atom_site_label_1 
_geom_bond_atom_site_label_2 
_geom_bond_distance 
_geom_bond_site_symmetry_2 
_ccdc_geom_bond_type 
O1         Ni309   1.925       .  S
O1         C1211   1.283       .  A
O2           Ni9   1.914       .  S
O2         C1212   1.278       .  A
O3           Ni9   1.917       .  S
O3           C13   1.283       .  A
O4         Ni309   1.911       .  S
O4           C14   1.276       .  A
O5          Ni10   1.902   1_655  S
O5         C1214   1.280       .  A
O6         Ni310   1.921   1_554  S
O6         C1213   1.278       .  A
O7         Ni310   1.922       .  S
O7           C12   1.284   1_556  A
O8          Ni10   1.926       .  S
O8           C11   1.285   1_455  A
Ni9         O301   1.920       .  S
Ni9         O304   1.923   1_554  S
Ni9       Ni1510   2.388   1_554  S
Ni10        O306   1.903       .  S
Ni10        O307   1.921       .  S
Ni10      Ni1509   2.384   1_455  S
C11        O1201   1.279       .  A
C11         C270   1.508       .  S
C12        O1202   1.279   1_455  A
C12        C1489   1.502       .  S
C13        O1206   1.277       .  A
C13        C1454   1.466       .  S
C14        O1205   1.283       .  A
C14        C1438   1.464       .  S
O15         Ni23   1.920       .  S
O15          C25   1.278       .  A
O16         Ni23   1.907   1_655  S
O16          C26   1.281       .  A
O17         Ni23   1.900       .  S
O17          C27   1.276       .  A
O18         Ni23   1.906       .  S
O18          C28   1.276       .  A
O19         Ni24   1.909       .  S
O19        C1228   1.283       .  A
O20         Ni24   1.923       .  S
O20        C1227   1.283       .  A
O21         Ni24   1.914       .  S
O21        C1226   1.277       .  A
O22         Ni24   1.900       .  S
O22        C1225   1.280       .  A
Ni23      Ni1224   2.383   1_455  S
Ni24      Ni1223   2.384       .  S
C25        O1222   1.281       .  A
C25         C257   1.466       .  S
C26        O1221   1.278       .  A
C26         C241   1.464       .  S
C27        O1220   1.285   1_455  A
C27         C222   1.499   1_455  S
C28        O1219   1.287   1_455  A
C28         C209   1.498       .  S
O29         Ni35   1.917       .  S
O29         C650   1.273       .  A
O30         Ni53   1.925       .  S
O30         C339   1.278       .  A
O31          H54   0.972       .  S
O31        Ni335   1.894   1_554  S
O31       Ni1553   1.886   1_554  S
O31        Ni647   1.952       .  S
C32          O49   1.289       .  A
C32        O1241   1.277       .  A
C32         C286   1.482       .  S
O33         Ni52   1.918   1_565  S
O33         C639   1.274   1_554  A
O34         Ni52   1.939       .  S
O34          C36   1.273       .  A
Ni35         O38   1.918       .  S
Ni35         O40   1.932       .  S
Ni35        O331   1.896       .  S
C36        O1246   1.304   1_455  A
C36        C1868   1.557   1_445  S
O37         Ni53   1.942       .  S
O37          C43   1.286   1_455  A
O38        C1243   1.283       .  A
C39         O330   1.277       .  A
C39         O633   1.273   1_556  A
C39         C174   1.479       .  S
O40          C42   1.269       .  A
O41         Ni52   1.912       .  S
O41        C1232   1.277       .  A
C42        O1248   1.296       .  A
C42        C1862   1.541       .  S
C43        O1238   1.281       .  A
C43         C273   1.489       .  S
H44          O45   0.963       .  S
O45        Ni653   1.939   1_545  S
O45       Ni1547   1.895   1_455  S
O45        Ni352   1.903       .  S
O46         Ni47   2.023       .  S
O46        C1236   1.301       .  A
Ni47         O51   1.928       .  S
Ni47         O49   1.949       .  S
Ni47        O631   1.945   1_545  S
Ni47       O1545   1.893   1_554  S
O48         Ni53   2.020       .  S
O48        C1242   1.299   1_455  A
C50         O629   1.271       .  A
C50         O351   1.279       .  A
C50         C193   1.479       .  S
O51         C350   1.279       .  A
Ni52        O345   1.897   1_554  S
Ni53       O1531   1.891   1_455  S
Ni53        O645   1.945       .  S
O55         Ni61   1.926       .  S
O55         C676   1.277       .  A
O56         Ni79   1.902       .  S
O56          C65   1.273       .  A
O57          H80   0.966       .  S
O57         Ni61   1.905       .  S
O57       Ni1279   1.892       .  S
O57        Ni673   1.936       .  S
C58          O75   1.284       .  A
C58        O1267   1.281       .  A
C58         C225   1.490       .  S
O59         Ni78   1.936       .  S
O59         C665   1.278       .  A
O60         Ni78   1.947       .  S
O60          C62   1.274       .  A
Ni61         O64   1.925       .  S
Ni61         O66   1.947       .  S
C62        O1272   1.302   1_455  A
C62        C1842   1.558   1_445  S
O63         Ni79   1.923       .  S
O63          C69   1.279   1_455  A
O64        C1269   1.278       .  A
C65         O659   1.277       .  A
C65         C142   1.467       .  S
O66          C68   1.274       .  A
O67         Ni78   1.922       .  S
O67        C1258   1.282       .  A
C68        O1274   1.300       .  A
C68        C1836   1.553       .  S
C69        O1264   1.279       .  A
C69         C206   1.482   1_655  S
H70          O71   0.967       .  S
O71         Ni78   1.900       .  S
O71        Ni679   1.927   1_545  S
O71       Ni1273   1.895   1_455  S
O72         Ni73   2.025       .  S
O72        C1262   1.304       .  A
Ni73         O77   1.922       .  S
Ni73         O75   1.940       .  S
Ni73        O657   1.936   1_545  S
Ni73       O1271   1.890       .  S
O74         Ni79   2.023       .  S
O74        C1268   1.302       .  A
C76          O77   1.279       .  A
C76         O655   1.273   1_545  A
C76         C158   1.467       .  S
Ni79       O1257   1.890   1_455  S
Ni79        O671   1.926       .  S
O81         Ni89   1.918       .  S
O81         C391   1.284       .  A
O82         Ni89   1.925       .  S
O82          C92   1.283       .  A
O83         Ni89   1.917       .  S
O83          C93   1.278       .  A
O84        Ni389   1.908       .  S
O84          C94   1.281       .  A
O85         Ni90   1.910   1_554  S
O85         C694   1.276       .  A
O86        Ni390   1.903       .  S
O86         C693   1.281       .  A
O87         Ni90   1.918       .  S
O87         C992   1.280       .  A
O88         Ni90   1.916       .  S
O88         C691   1.279       .  A
Ni89        O384   1.899       .  S
Ni89       Ni990   2.386   1_545  S
Ni90        O386   1.905       .  S
Ni90       Ni989   2.385       .  S
C91         O381   1.281       .  A
C91         O688   1.280   1_554  A
C91         C777   1.484   1_554  S
C92         O987   1.279   1_545  A
C92         C190   1.500       .  S
C93         O686   1.279       .  A
C93         C113   1.459       .  S
C94         O685   1.277       .  A
C94         C126   1.462       .  S
O95        Ni103   1.932       .  S
O95         C705   1.283   1_545  A
O96        Ni103   1.918       .  S
O96         C706   1.284   1_545  A
O97        Ni103   1.899   1_565  S
O97         C707   1.279       .  A
O98        Ni103   1.906       .  S
O98         C708   1.275       .  A
O99        Ni104   1.903       .  S
O99         C108   1.281       .  A
O100       Ni104   1.913       .  S
O100        C107   1.277       .  A
O101       Ni104   1.919       .  S
O101        C106   1.279       .  A
O102       Ni104   1.906       .  S
O102        C105   1.282       .  A
Ni103      Ni704   2.386   1_545  S
Ni104      Ni703   2.387       .  S
C105        O695   1.279       .  A
C105        C145   1.490       .  S
C106        O696   1.283       .  A
C106        C761   1.498       .  S
C107        O697   1.280       .  A
C107        C729   1.459       .  S
C108        O698   1.275       .  A
C108        C710   1.456       .  S
C109        C110   1.401       .  A
C109        C114   1.400       .  A
C109        H116   1.085       .  S
C110        C708   1.460       .  S
C110        C711   1.408       .  A
C111        C112   1.400       .  A
C111        C710   1.409       .  A
C111        C118   1.512       .  S
C112        C713   1.400       .  A
C112        H117   1.085       .  S
C113        C114   1.411       .  A
C113        C712   1.401       .  A
C114        C115   1.512       .  S
C115        F119   1.384       .  S
C115        F121   1.384       .  S
C115        F720   1.383       .  S
C118        F122   1.383       .  S
C118        F124   1.384       .  S
C118        F723   1.384       .  S
F120        C715   1.382       .  S
F123        C718   1.384       .  S
C125        C130   1.399       .  A
C125        C726   1.399       .  A
C125        H132   1.085       .  S
C126        C127   1.413       .  A
C126        C725   1.399       .  A
C127        C128   1.402       .  A
C127        C134   1.509       .  S
C128        C129   1.399       .  A
C128        H133   1.085       .  S
C129        C707   1.463       .  S
C129        C730   1.414       .  A
C130        C729   1.408       .  A
C130        C131   1.510       .  S
C131        F135   1.382       .  S
C131        F136   1.383       .  S
C131        F137   1.385       .  S
C134        F138   1.381       .  S
C134        F139   1.383       .  S
C134        F140   1.383       .  S
C141        C146   1.413       .  A
C141        C742   1.403   1_545  A
C141        H148   1.083       .  S
C142        C143   1.408       .  A
C142        C741   1.399       .  A
C143        C144   1.397       .  A
C143        C150   1.518       .  S
C144        C145   1.409       .  A
C144        H149   1.083       .  S
C145        C746   1.427       .  A
C146        C745   1.428   1_545  A
C146        C147   1.520       .  S
C147        F151   1.385       .  S
C147        F152   1.383   1_545  S
C147        F153   1.383       .  S
C150        F154   1.384       .  S
C150        F155   1.382       .  S
C150        F156   1.385       .  S
C157        C162   1.413       .  A
C157        C758   1.403       .  A
C157        H164   1.083       .  S
C158        C159   1.415       .  A
C158        C757   1.401   1_545  A
C159        C160   1.400       .  A
C159        C166   1.520       .  S
C160        C161   1.406   1_545  A
C160        H165   1.084       .  S
C161        C706   1.491       .  S
C161        C762   1.426       .  A
C162        C761   1.429       .  A
C162        C163   1.522       .  S
C163        F167   1.385       .  S
C163        F168   1.383       .  S
C163        F169   1.384       .  S
C166        F170   1.384       .  S
C166        F171   1.381       .  S
C166        F172   1.383       .  S
C173        C178   1.416       .  A
C173        C474   1.402       .  A
C173        H180   1.083       .  S
C174        C473   1.401       .  A
C174        C775   1.416       .  A
C175        C176   1.399       .  A
C175        C774   1.413   1_545  A
C175        C182   1.522       .  S
C176        C777   1.407   1_545  A
C176        H181   1.083       .  S
C177        C691   1.497       .  S
C177        C776   1.408       .  A
C177        C478   1.428       .  A
C178        C477   1.429       .  A
C178        C179   1.520       .  S
C179        F183   1.385       .  S
C179        F184   1.382       .  S
C179        F185   1.383       .  S
C182        F186   1.381   1_556  S
C182        F187   1.384       .  S
C182        F188   1.385       .  S
C189        C190   1.418       .  A
C189        C194   1.415       .  A
C189        H196   1.082       .  S
C190        C791   1.428   1_545  A
C191        C192   1.401       .  A
C191        C790   1.428       .  A
C191        C198   1.525       .  S
C192        C793   1.400       .  A
C192        H197   1.083       .  S
C193        C194   1.411       .  A
C193        C792   1.400   1_545  A
C194        C195   1.518       .  S
C195        F199   1.384       .  S
C195        F200   1.384       .  S
C195        F501   1.382       .  S
C198        F202   1.383       .  S
C198        F503   1.383       .  S
C198        F504   1.385       .  S
F201        C495   1.383       .  S
F203        C498   1.383       .  S
F204        C498   1.386       .  S
C205        C206   1.402       .  A
C205        C210   1.412       .  A
C205        H212   1.083       .  S
C206       C1407   1.415   1_455  A
C207        C208   1.400       .  A
C207       C1406   1.422       .  A
C207        C214   1.522       .  S
C208       C1409   1.405       .  A
C208        H213   1.081       .  S
C209        C210   1.431       .  A
C209       C1408   1.406   1_455  A
C210        C211   1.523       .  S
C211        F215   1.384       .  S
C211        F216   1.385       .  S
C211        F217   1.383       .  S
C214        F218   1.383       .  S
C214        F219   1.383       .  S
C214        F220   1.385       .  S
C221        C226   1.413       .  A
C221       C1422   1.413       .  A
C221        H228   1.082       .  S
C222        C223   1.426   1_655  A
C222       C1421   1.410       .  A
C223        C224   1.399       .  A
C223        C230   1.523       .  S
C224       C1425   1.403   1_455  A
C224        H229   1.081       .  S
C225        C226   1.416       .  A
C225       C1424   1.403       .  A
C226        C227   1.517       .  S
C227        F231   1.384       .  S
C227        F232   1.383       .  S
C227        F233   1.383       .  S
C230        F234   1.378       .  S
C230        F235   1.382       .  S
C230        F236   1.385       .  S
C237        C238   1.400       .  A
C237        C242   1.401       .  A
C237        H244   1.085       .  S
C238       C1214   1.469       .  S
C238       C1439   1.418       .  A
C239        C240   1.398       .  A
C239       C1438   1.415       .  A
C239        C246   1.512       .  S
C240       C1441   1.397       .  A
C240        H245   1.085       .  S
C241        C242   1.416       .  A
C241       C1440   1.399       .  A
C242        C243   1.514       .  S
C243        F247   1.381       .  S
C243        F248   1.382       .  S
C243        F249   1.383       .  S
C246        F250   1.380       .  S
C246        F251   1.382       .  S
C246        F252   1.383       .  S
C253        C258   1.405       .  A
C253       C1454   1.402       .  A
C253        H260   1.083       .  S
C254       C1213   1.468       .  S
C254        C255   1.408       .  A
C254       C1453   1.401       .  A
C255        C256   1.402       .  A
C255        C262   1.510       .  S
C256        C257   1.403       .  A
C256        H261   1.083       .  S
C257       C1458   1.412       .  A
C258       C1457   1.410       .  A
C258        C259   1.515       .  S
C259        F263   1.384       .  S
C259        F264   1.383       .  S
C259        F265   1.383       .  S
C262        F266   1.385       .  S
C262        F267   1.383       .  S
C262        F268   1.383       .  S
C269        C274   1.409       .  A
C269       C1770   1.403   1_554  A
C269        H276   1.083       .  S
C270        C271   1.431       .  A
C270       C1769   1.411   1_655  A
C271        C272   1.414       .  A
C271        C278   1.523       .  S
C272        C273   1.403       .  A
C272        H277   1.083       .  S
C273       C1774   1.414   1_655  A
C274       C1773   1.417   1_554  A
C274        C275   1.518       .  S
C275        F279   1.382       .  S
C275        F281   1.382       .  S
C275        F580   1.383       .  S
C278        F282   1.384       .  S
C278        F283   1.384       .  S
C278        F284   1.385       .  S
F280        C575   1.383       .  S
C285        C290   1.411       .  A
C285        C586   1.396       .  A
C285        H292   1.084       .  S
C286        C585   1.399       .  A
C286       C1487   1.419   1_554  A
C287        C288   1.406       .  A
C287       C1486   1.415   1_556  A
C287        C294   1.520       .  S
C288       C1489   1.410   1_556  A
C288        H293   1.082       .  S
C289       C1212   1.500       .  S
C289       C1488   1.407   1_554  A
C289        C590   1.429       .  A
C290        C589   1.427       .  A
C290        C291   1.518       .  S
C291        F295   1.378       .  S
C291        F296   1.382       .  S
C291        F597   1.383       .  S
C294        F298   1.383       .  S
C294        F299   1.382       .  S
C294        F300   1.384       .  S
F297        C591   1.383       .  S
O301       C1511   1.281   1_554  A
O302       Ni309   1.916       .  S
O302       C1512   1.280       .  A
O303       Ni309   1.901       .  S
O303        C313   1.280       .  A
O304        C314   1.280       .  A
O305       Ni310   1.910   1_655  S
O305       C1514   1.282       .  A
O306       C1513   1.275       .  A
O307        C312   1.284   1_455  A
O308       Ni310   1.920       .  S
O308        C311   1.280       .  A
Ni309     Ni1210   2.387       .  S
Ni310     Ni1209   2.384   1_456  S
C311       O1501   1.284   1_456  A
C311        C570   1.498       .  S
C312       O1502   1.277       .  A
C312       C1789   1.494       .  S
C313       O1506   1.278       .  A
C313       C1754   1.460       .  S
C314       O1505   1.280       .  A
C314       C1738   1.470       .  S
O315       Ni323   1.912       .  S
O315        C325   1.277       .  A
O316       Ni323   1.915   1_655  S
O316        C326   1.282       .  A
O317       Ni323   1.909       .  S
O317        C327   1.277   1_455  A
O318       Ni323   1.903       .  S
O318        C328   1.276       .  A
O319       Ni324   1.932       .  S
O319       C1528   1.287       .  A
O320       Ni324   1.933       .  S
O320       C1527   1.286       .  A
O321       Ni324   1.905       .  S
O321       C1526   1.274       .  A
O322       Ni324   1.894       .  S
O322       C1525   1.277       .  A
Ni323     Ni1524   2.384   1_455  S
Ni324     Ni1523   2.383       .  S
C325       O1522   1.279       .  A
C325        C557   1.455       .  S
C326       O1521   1.277       .  A
C326        C541   1.469       .  S
C327       O1520   1.286       .  A
C327        C522   1.507       .  S
C328       O1519   1.284   1_455  A
C328        C509   1.487       .  S
O329       Ni335   1.905       .  S
O329        C950   1.269   1_556  A
O330       Ni353   1.919       .  S
O331        H354   0.972       .  S
O331      Ni1253   1.888       .  S
O331       Ni947   1.935       .  S
C332        O349   1.285       .  A
C332       O1541   1.279       .  A
C332        C586   1.480       .  S
O333       Ni352   1.918       .  S
O333        C939   1.272   1_545  A
O334       Ni352   1.938       .  S
O334        C336   1.271       .  A
Ni335       O338   1.918       .  S
Ni335       O340   1.931       .  S
C336       O1546   1.300   1_445  A
C336       C2168   1.551   1_445  S
O337       Ni353   1.937       .  S
O337        C343   1.286   1_455  A
O338       C1543   1.282       .  A
C339        O933   1.273       .  A
C339        C474   1.481       .  S
O340        C342   1.267       .  A
O341       Ni352   1.913       .  S
O341       C1532   1.278       .  A
C342       O1548   1.306       .  A
C342       C2162   1.556       .  S
C343       O1538   1.280       .  A
C343        C573   1.492       .  S
H344        O345   0.961       .  S
O345       Ni953   1.941   1_545  S
O345      Ni1247   1.891   1_456  S
O346       Ni347   2.022       .  S
O346       C1536   1.301       .  A
Ni347       O351   1.927       .  S
Ni347       O349   1.938       .  S
Ni347       O931   1.947   1_545  S
Ni347      O1245   1.887       .  S
O348       Ni353   2.025       .  S
O348       C1542   1.302   1_455  A
C350        O929   1.275   1_544  A
C350        C493   1.488   1_545  S
Ni353      O1231   1.887   1_456  S
Ni353       O945   1.946       .  S
O355       Ni361   1.917       .  S
O355        C976   1.271       .  A
O356       Ni379   1.908       .  S
O356        C365   1.273       .  A
O357        H380   0.966       .  S
O357       Ni361   1.900       .  S
O357      Ni1579   1.884       .  S
O357       Ni973   1.939       .  S
C358        O375   1.279       .  A
C358       O1567   1.283       .  A
C358        C525   1.507       .  S
O359       Ni378   1.920       .  S
O359        C965   1.273   1_545  A
O360       Ni378   1.941       .  S
O360        C362   1.271       .  A
Ni361       O364   1.923       .  S
Ni361       O366   1.931       .  S
C362       O1572   1.295   1_455  A
C362       C2142   1.540   1_445  S
O363       Ni379   1.919       .  S
O363        C369   1.279   1_455  A
O364       C1569   1.280       .  A
C365        O959   1.276       .  A
C365        C442   1.476       .  S
O366        C368   1.268       .  A
O367       Ni378   1.921       .  S
O367       C1558   1.282       .  A
C368       O1574   1.299       .  A
C368       C2136   1.542       .  S
C369       O1564   1.279       .  A
C369        C506   1.473   1_655  S
H370        O371   0.967       .  S
O371       Ni979   1.935   1_545  S
O371      Ni1573   1.887   1_455  S
O371       Ni378   1.895       .  S
O372       Ni373   2.025       .  S
O372       C1562   1.303       .  A
Ni373       O377   1.920       .  S
Ni373       O375   1.929       .  S
Ni373       O957   1.930   1_545  S
Ni373      O1571   1.896       .  S
O374       Ni379   2.011       .  S
O374       C1568   1.298   1_455  A
C376        O955   1.272       .  A
C376        O377   1.279       .  A
C376        C458   1.480       .  S
Ni379      O1557   1.890   1_455  S
Ni379       O971   1.926       .  S
O381       Ni389   1.905       .  S
O382       Ni389   1.921       .  S
O382        C392   1.283       .  A
O383       Ni389   1.912   1_546  S
O383        C393   1.277       .  A
O384        C394   1.280   1_545  A
O385       Ni390   1.916       .  S
O385        C994   1.278       .  A
O386        C993   1.280       .  A
O387       Ni390   1.906       .  S
O387        C692   1.277       .  A
O388       Ni390   1.919       .  S
O388        C991   1.279       .  A
Ni389      Ni690   2.388   1_554  S
Ni390      Ni689   2.387       .  S
C391        O988   1.280   1_545  A
C391       C1077   1.504       .  S
C392        O687   1.280       .  A
C392        C490   1.500       .  S
C393        O986   1.279   1_545  A
C393        C413   1.454       .  S
C394        O985   1.273       .  A
C394        C426   1.446       .  S
O395       Ni403   1.918       .  S
O395       C1005   1.281       .  A
O396       Ni403   1.915       .  S
O396       C1006   1.282       .  A
O397       Ni403   1.897       .  S
O397       C1007   1.280   1_545  A
O398       Ni403   1.909       .  S
O398       C1008   1.276       .  A
O399       Ni404   1.898       .  S
O399        C408   1.280       .  A
O400       Ni404   1.914       .  S
O400        C407   1.276       .  A
O401       Ni404   1.924       .  S
O401        C406   1.281       .  A
O402       Ni404   1.920       .  S
O402        C405   1.284       .  A
Ni403     Ni1004   2.393   1_545  S
Ni404     Ni1003   2.385       .  S
C405        O995   1.279       .  A
C405        C445   1.500       .  S
C406        O996   1.281       .  A
C406       C1061   1.499       .  S
C407        O997   1.281       .  A
C407       C1029   1.462       .  S
C408        O998   1.277       .  A
C408       C1010   1.458       .  S
C409        C410   1.403       .  A
C409        C414   1.404       .  A
C409        H416   1.084       .  S
C410       C1008   1.457       .  S
C410       C1011   1.409       .  A
C411       C1010   1.409       .  A
C411        C412   1.402       .  A
C411        C418   1.515       .  S
C412       C1013   1.405       .  A
C412        H417   1.085       .  S
C413       C1012   1.401       .  A
C413        C414   1.409       .  A
C414        C415   1.516       .  S
C415        F419   1.384       .  S
C415       F1020   1.383       .  S
C415        F421   1.383       .  S
C418        F422   1.383       .  S
C418       F1023   1.385       .  S
C418        F424   1.383       .  S
F420       C1015   1.383       .  S
F423       C1018   1.385       .  S
C425       C1026   1.403       .  A
C425        C430   1.403       .  A
C425        H432   1.085       .  S
C426       C1025   1.398       .  A
C426        C427   1.408       .  A
C427        C428   1.401       .  A
C427        C434   1.517       .  S
C428        C429   1.402       .  A
C428        H433   1.084       .  S
C429       C1007   1.450       .  S
C429       C1030   1.411       .  A
C430       C1029   1.410       .  A
C430        C431   1.511       .  S
C431        F435   1.383       .  S
C431        F436   1.384       .  S
C431        F437   1.385       .  S
C434        F438   1.383       .  S
C434        F439   1.384       .  S
C434        F440   1.384       .  S
C441       C1042   1.404   1_545  A
C441        C446   1.406       .  A
C441        H448   1.083       .  S
C442       C1041   1.398       .  A
C442        C443   1.412       .  A
C443        C444   1.406       .  A
C443        C450   1.520       .  S
C444        C445   1.410       .  A
C444        H449   1.082       .  S
C445       C1046   1.431       .  A
C446       C1045   1.418   1_545  A
C446        C447   1.519       .  S
C447        F451   1.385       .  S
C447        F452   1.382   1_545  S
C447        F453   1.382       .  S
C450        F454   1.384       .  S
C450        F455   1.382       .  S
C450        F456   1.383       .  S
C457       C1058   1.400       .  A
C457        C462   1.413       .  A
C457        H464   1.083       .  S
C458       C1057   1.400       .  A
C458        C459   1.422       .  A
C459        C460   1.402       .  A
C459        C466   1.518       .  S
C460        C461   1.402       .  A
C460        H465   1.083       .  S
C461       C1006   1.481       .  S
C461       C1062   1.423       .  A
C462       C1061   1.428       .  A
C462        C463   1.518       .  S
C463        F467   1.384       .  S
C463        F468   1.383       .  S
C463        F469   1.384       .  S
C466        F470   1.382       .  S
C466        F471   1.379       .  S
C466        F472   1.385       .  S
C473        C478   1.413       .  A
C473        H480   1.083       .  S
C474       C1075   1.416       .  A
C475       C1074   1.424       .  A
C475        C476   1.405       .  A
C475        C482   1.524       .  S
C476       C1077   1.407       .  A
C476        H481   1.081       .  S
C477        C991   1.499       .  S
C477       C1076   1.406       .  A
C478        C479   1.521       .  S
C479        F483   1.384       .  S
C479        F484   1.383   1_556  S
C479        F485   1.384       .  S
C482        F486   1.383       .  S
C482        F487   1.383       .  S
C482        F488   1.385       .  S
C489        C490   1.412   1_545  A
C489        C494   1.412       .  A
C489        H496   1.082       .  S
C490       C1091   1.425       .  A
C491       C1090   1.428       .  A
C491        C492   1.404       .  A
C491        C498   1.524       .  S
C492       C1093   1.404   1_556  A
C492        H497   1.083       .  S
C493       C1092   1.404       .  A
C493        C494   1.414   1_565  A
C494        C495   1.517       .  S
C495        F499   1.384       .  S
C495        F500   1.383   1_554  S
C498        F502   1.383       .  S
C505        C506   1.398       .  A
C505        C510   1.406       .  A
C505        H512   1.083       .  S
C506       C1707   1.415   1_455  A
C507       C1706   1.422       .  A
C507        C508   1.409       .  A
C507        C514   1.522       .  S
C508       C1709   1.408       .  A
C508        H513   1.082       .  S
C509       C1708   1.406   1_455  A
C509        C510   1.427       .  A
C510        C511   1.522       .  S
C511        F515   1.383       .  S
C511        F516   1.384       .  S
C511        F517   1.384       .  S
C514        F518   1.382       .  S
C514        F519   1.382       .  S
C514        F520   1.385       .  S
C521       C1722   1.406       .  A
C521        C526   1.412       .  A
C521        H528   1.082       .  S
C522       C1721   1.411       .  A
C522        C523   1.430   1_655  A
C523        C524   1.407       .  A
C523        C530   1.524       .  S
C524       C1725   1.404       .  A
C524        H529   1.082       .  S
C525       C1724   1.408       .  A
C525        C526   1.426       .  A
C526        C527   1.519       .  S
C527        F531   1.385       .  S
C527        F532   1.383       .  S
C527        F533   1.379       .  S
C530        F534   1.382       .  S
C530        F535   1.384       .  S
C530        F536   1.385       .  S
C537        C538   1.397       .  A
C537        C542   1.402       .  A
C537        H544   1.085       .  S
C538       C1514   1.471       .  S
C538       C1739   1.412       .  A
C539       C1738   1.416       .  A
C539        C540   1.401       .  A
C539        C546   1.509       .  S
C540       C1741   1.397       .  A
C540        H545   1.085       .  S
C541       C1740   1.399       .  A
C541        C542   1.420       .  A
C542        C543   1.512       .  S
C543        F547   1.382       .  S
C543        F548   1.384       .  S
C543        F549   1.380       .  S
C546        F550   1.380   1_556  S
C546        F551   1.381       .  S
C546        F552   1.383       .  S
C553       C1754   1.402       .  A
C553        C558   1.405       .  A
C553        H560   1.084       .  S
C554       C1513   1.460       .  S
C554       C1753   1.402       .  A
C554        C555   1.412       .  A
C555        C556   1.400       .  A
C555        C562   1.511       .  S
C556        C557   1.400       .  A
C556        H561   1.085       .  S
C557       C1758   1.410       .  A
C558       C1757   1.413       .  A
C558        C559   1.516       .  S
C559        F563   1.384       .  S
C559        F564   1.383       .  S
C559        F565   1.383       .  S
C562        F566   1.384       .  S
C562        F567   1.382       .  S
C562        F568   1.384       .  S
C569       C1470   1.407       .  A
C569        C574   1.415       .  A
C569        H576   1.083       .  S
C570       C1469   1.406   1_456  A
C570        C571   1.425       .  A
C571        C572   1.410       .  A
C571        C578   1.519       .  S
C572        C573   1.403   1_455  A
C572        H577   1.083       .  S
C573       C1474   1.422   1_556  A
C574       C1473   1.426       .  A
C574        C575   1.521       .  S
C575        F579   1.385       .  S
C575        F581   1.383       .  S
C578        F582   1.380       .  S
C578        F583   1.383       .  S
C578        F584   1.382       .  S
C585        C590   1.411       .  A
C585        H592   1.083       .  S
C586       C1787   1.413       .  A
C587       C1786   1.413       .  A
C587        C588   1.405       .  A
C587        C594   1.518       .  S
C588       C1789   1.405   1_455  A
C588        H593   1.082       .  S
C589       C1512   1.503       .  S
C589       C1788   1.412       .  A
C590        C591   1.520       .  S
C591        F595   1.384       .  S
C591        F596   1.381       .  S
C594        F598   1.384       .  S
C594        F599   1.380       .  S
C594        F600   1.381       .  S
O601       Ni909   1.933       .  S
O601       C1811   1.286       .  A
O602       Ni609   1.919       .  S
O602       C1812   1.279       .  A
O603       Ni609   1.911       .  S
O603        C613   1.282       .  A
O604       Ni909   1.921       .  S
O604        C614   1.278       .  A
O605       Ni610   1.912   1_655  S
O605       C1814   1.282       .  A
O606       Ni910   1.915       .  S
O606       C1813   1.278   1_556  A
O607       Ni910   1.922       .  S
O607        C612   1.283   1_556  A
O608       Ni610   1.923       .  S
O608        C611   1.281       .  A
Ni609       O901   1.925       .  S
Ni609       O904   1.924       .  S
Ni609     Ni2110   2.387   1_554  S
Ni610       O906   1.918       .  S
Ni610       O907   1.925       .  S
Ni610     Ni2109   2.385   1_455  S
C611       O1801   1.283   1_455  A
C611        C870   1.488       .  S
C612       O1802   1.280   1_455  A
C612       C2089   1.504       .  S
C613       O1806   1.278       .  A
C613       C2054   1.465       .  S
C614       O1805   1.282       .  A
C614       C2038   1.472       .  S
O615       Ni623   1.916       .  S
O615        C625   1.278       .  A
O616       Ni623   1.909   1_655  S
O616        C626   1.281       .  A
O617       Ni623   1.905       .  S
O617        C627   1.276       .  A
O618       Ni623   1.904       .  S
O618        C628   1.276       .  A
O619       Ni624   1.917       .  S
O619       C1828   1.284       .  A
O620       Ni624   1.928       .  S
O620       C1827   1.285       .  A
O621       Ni624   1.915       .  S
O621       C1826   1.277       .  A
O622       Ni624   1.900       .  S
O622       C1825   1.280       .  A
Ni623     Ni1824   2.383   1_455  S
Ni624     Ni1823   2.384       .  S
C625       O1822   1.279       .  A
C625        C857   1.460       .  S
C626       O1821   1.277       .  A
C626        C841   1.464       .  S
C627       O1820   1.286   1_455  A
C627        C822   1.505       .  S
C628       O1819   1.285   1_455  A
C628        C809   1.496       .  S
O629       Ni635   1.910   1_545  S
O630       Ni653   1.931       .  S
O630        C939   1.280       .  A
O631        H654   0.972       .  S
O631       Ni935   1.906   1_554  S
O631      Ni2153   1.892   1_554  S
C632        O649   1.289       .  A
C632       O1841   1.278       .  A
C632        C886   1.490       .  S
O633       Ni652   1.919       .  S
O634       Ni652   1.949       .  S
O634        C636   1.273       .  A
Ni635       O638   1.925       .  S
Ni635       O640   1.932       .  S
Ni635       O931   1.888       .  S
C636       O1846   1.300   1_455  A
C636       C1268   1.560       .  S
O637       Ni653   1.936       .  S
O637        C643   1.284   1_455  A
O638       C1843   1.282       .  A
C639        O930   1.272       .  A
C639        C774   1.466       .  S
O640        C642   1.267       .  A
O641       Ni652   1.925       .  S
O641       C1832   1.280       .  A
C642       O1848   1.303   1_565  A
C642       C1262   1.554   1_565  S
C643       O1838   1.279       .  A
C643        C873   1.476       .  S
H644        O645   0.962       .  S
O645      Ni2147   1.888   1_455  S
O645       Ni952   1.894       .  S
O646       Ni647   2.022       .  S
O646       C1836   1.301       .  A
Ni647       O651   1.939       .  S
Ni647       O649   1.948       .  S
Ni647      O2145   1.898       .  S
O648       Ni653   2.026   1_545  S
O648       C1842   1.302   1_445  A
C650        O951   1.273       .  A
C650        C793   1.478       .  S
O651        C950   1.280       .  A
Ni652       O945   1.902   1_554  S
Ni653      O2131   1.898   1_455  S
O655       Ni661   1.913       .  S
O656       Ni679   1.911       .  S
O656        C665   1.275   1_565  A
O657        H680   0.966       .  S
O657       Ni661   1.897       .  S
O657      Ni1879   1.885       .  S
C658        O675   1.284       .  A
C658       O1867   1.283       .  A
C658        C825   1.505       .  S
O659       Ni678   1.930       .  S
O660       Ni678   1.949       .  S
O660        C662   1.273       .  A
Ni661       O664   1.918       .  S
Ni661       O666   1.943       .  S
C662       O1872   1.297   1_455  A
C662       C1242   1.555   1_455  S
O663       Ni679   1.922       .  S
O663        C669   1.280   1_455  A
O664       C1869   1.278       .  A
C665        C742   1.487   1_545  S
O666        C668   1.271   1_565  A
O667       Ni678   1.928       .  S
O667       C1858   1.283       .  A
C668       O1874   1.301       .  A
C668       C1236   1.554       .  S
C669       O1864   1.277       .  A
C669        C806   1.481       .  S
H670        O671   0.967       .  S
O671      Ni1873   1.884   1_455  S
O671       Ni678   1.903       .  S
O672       Ni673   2.001       .  S
O672       C1862   1.295       .  A
Ni673       O677   1.915       .  S
Ni673       O675   1.941       .  S
Ni673      O1871   1.891       .  S
O674       Ni679   2.018   1_545  S
O674       C1868   1.302   1_445  A
C676        O677   1.275       .  A
C676        C758   1.472       .  S
Ni679      O1857   1.892   1_455  S
O681       Ni689   1.919       .  S
O681        C991   1.285       .  A
O682       Ni689   1.922       .  S
O682        C692   1.283       .  A
O683       Ni689   1.907       .  S
O683        C693   1.275       .  A
O684       Ni989   1.906   1_554  S
O684        C694   1.280       .  A
O685       Ni690   1.915   1_554  S
O686       Ni990   1.899   1_545  S
O687       Ni690   1.917   1_554  S
O688       Ni690   1.919       .  S
Ni689       O984   1.900       .  S
Ni690       O986   1.898       .  S
C691        O981   1.282       .  A
C692        C790   1.496       .  S
C693        C713   1.454       .  S
C694        C726   1.457       .  S
O695       Ni703   1.916       .  S
O696       Ni703   1.912       .  S
O697       Ni703   1.903       .  S
O698       Ni703   1.910       .  S
O699       Ni704   1.913   1_545  S
O699        C708   1.283       .  A
O700       Ni704   1.922       .  S
O700        C707   1.279       .  A
O701       Ni704   1.913       .  S
O701        C706   1.278       .  A
O702       Ni704   1.912       .  S
O702        C705   1.282       .  A
C705        C745   1.505       .  S
C709        C710   1.401       .  A
C709        C714   1.402       .  A
C709        H716   1.084       .  S
C711        C712   1.401       .  A
C711        C718   1.511       .  S
C712        H717   1.085       .  S
C713        C714   1.410       .  A
C714        C715   1.517       .  S
C715        F719   1.384       .  S
C715        F721   1.383       .  S
C718        F722   1.383       .  S
C718        F724   1.383       .  S
C725        C730   1.399       .  A
C725        H732   1.085       .  S
C726        C727   1.410       .  A
C727        C728   1.403       .  A
C727        C734   1.514       .  S
C728        C729   1.404       .  A
C728        H733   1.085       .  S
C730        C731   1.510       .  S
C731        F735   1.384       .  S
C731        F736   1.384       .  S
C731        F737   1.380       .  S
C734        F738   1.384       .  S
C734        F739   1.383       .  S
C734        F740   1.384       .  S
C741        C746   1.408       .  A
C741        H748   1.083       .  S
C742        C743   1.417       .  A
C743        C744   1.405       .  A
C743        C750   1.523       .  S
C744        C745   1.411       .  A
C744        H749   1.081       .  S
C746        C747   1.520       .  S
C747        F751   1.386       .  S
C747        F752   1.384       .  S
C747        F753   1.382       .  S
C750        F754   1.384       .  S
C750        F755   1.382       .  S
C750        F756   1.385       .  S
C757        C762   1.411       .  A
C757        H764   1.083       .  S
C758        C759   1.413       .  A
C759        C760   1.398       .  A
C759        C766   1.519       .  S
C760        C761   1.408       .  A
C760        H765   1.084       .  S
C762        C763   1.521       .  S
C763        F767   1.385       .  S
C763        F768   1.381       .  S
C763        F769   1.382       .  S
C766        F770   1.383       .  S
C766        F771   1.379       .  S
C766        F772   1.383       .  S
C773       C1074   1.404   1_565  A
C773        C778   1.415       .  A
C773        H780   1.083       .  S
C774       C1073   1.399       .  A
C775        C776   1.401       .  A
C775        C782   1.523       .  S
C776        H781   1.082       .  S
C777       C1078   1.422       .  A
C778       C1077   1.428   1_565  A
C778        C779   1.520       .  S
C779        F783   1.385       .  S
C779        F784   1.384       .  S
C779        F785   1.383       .  S
C782        F786   1.383   1_556  S
C782        F787   1.384       .  S
C782        F788   1.385       .  S
C789        C790   1.414       .  A
C789        C794   1.411       .  A
C789        H796   1.082       .  S
C791        C792   1.399       .  A
C791        C798   1.526       .  S
C792        H797   1.083       .  S
C793        C794   1.413       .  A
C794        C795   1.519       .  S
C795        F799   1.385       .  S
C795        F800   1.384       .  S
C795       F1101   1.382       .  S
C798        F802   1.384       .  S
C798       F1103   1.383       .  S
C798       F1104   1.385       .  S
F801       C1095   1.383       .  S
F803       C1098   1.384       .  S
F804       C1098   1.385       .  S
C805        C806   1.401   1_455  A
C805        C810   1.408       .  A
C805        H812   1.083       .  S
C806       C2007   1.418       .  A
C807       C2006   1.419       .  A
C807        C808   1.404       .  A
C807        C814   1.523       .  S
C808       C2009   1.408       .  A
C808        H813   1.081       .  S
C809       C2008   1.407   1_455  A
C809        C810   1.430       .  A
C810        C811   1.522       .  S
C811        F815   1.384       .  S
C811        F816   1.385       .  S
C811        F817   1.384       .  S
C814        F818   1.383       .  S
C814        F819   1.383       .  S
C814        F820   1.383       .  S
C821       C2022   1.408       .  A
C821        C826   1.413       .  A
C821        H828   1.082       .  S
C822       C2021   1.410   1_455  A
C822        C823   1.430       .  A
C823        C824   1.407       .  A
C823        C830   1.523       .  S
C824       C2025   1.402       .  A
C824        H829   1.082       .  S
C825       C2024   1.408       .  A
C825        C826   1.422       .  A
C826        C827   1.517       .  S
C827        F831   1.385       .  S
C827        F832   1.383       .  S
C827        F833   1.381       .  S
C830        F834   1.383       .  S
C830        F835   1.384       .  S
C830        F836   1.385       .  S
C837        C838   1.399       .  A
C837        C842   1.401       .  A
C837        H844   1.081       .  S
C838       C1814   1.470       .  S
C838       C2039   1.415       .  A
C839       C2038   1.416       .  A
C839        C840   1.401       .  A
C839        C846   1.506       .  S
C840       C2041   1.397       .  A
C840        H845   1.085       .  S
C841       C2040   1.398       .  A
C841        C842   1.415       .  A
C842        C843   1.514       .  S
C843        F847   1.382       .  S
C843        F848   1.383       .  S
C843        F849   1.381       .  S
C846        F850   1.383       .  S
C846        F851   1.384       .  S
C846        F852   1.380       .  S
C853       C2054   1.403       .  A
C853        C858   1.405       .  A
C853        H860   1.084       .  S
C854       C1813   1.463       .  S
C854       C2053   1.402       .  A
C854        C855   1.413       .  A
C855        C856   1.402       .  A
C855        C862   1.514       .  S
C856        C857   1.400       .  A
C856        H861   1.085       .  S
C857       C2058   1.410       .  A
C858       C2057   1.410       .  A
C858        C859   1.516       .  S
C859        F863   1.384       .  S
C859        F864   1.383       .  S
C859        F865   1.382       .  S
C862        F866   1.383       .  S
C862        F867   1.384       .  S
C862        F868   1.383       .  S
C869       C2370   1.404       .  A
C869        C874   1.411       .  A
C869        H876   1.084       .  S
C870       C2369   1.407   1_455  A
C870        C871   1.422   1_455  A
C871        C872   1.410       .  A
C871        C878   1.518       .  S
C872        C873   1.402       .  A
C872        H877   1.083       .  S
C873       C2374   1.413       .  A
C874       C2373   1.418   1_554  A
C874        C875   1.518       .  S
C875        F879   1.383       .  S
C875       F1180   1.382       .  S
C875        F881   1.382       .  S
C878        F882   1.381       .  S
C878        F883   1.382   1_655  S
C878        F884   1.385       .  S
F880       C1175   1.382       .  S
C885       C1186   1.401       .  A
C885        C890   1.407       .  A
C885        H892   1.083       .  S
C886       C1185   1.401       .  A
C886       C2087   1.420       .  A
C887       C2086   1.417   1_556  A
C887        C888   1.409       .  A
C887        C894   1.518       .  S
C888       C2089   1.410   1_556  A
C888        H893   1.082       .  S
C889       C1812   1.507       .  S
C889       C2088   1.408       .  A
C889       C1190   1.432       .  A
C890       C1189   1.427       .  A
C890        C891   1.520       .  S
C891        F895   1.384       .  S
C891        F896   1.378       .  S
C891       F1197   1.380       .  S
C894        F898   1.383       .  S
C894        F899   1.382       .  S
C894        F900   1.385       .  S
F897       C1191   1.383       .  S
O901       C2111   1.282       .  A
O902       Ni909   1.921       .  S
O902       C2112   1.280       .  A
O903       Ni909   1.907       .  S
O903        C913   1.280       .  A
O904        C914   1.279   1_554  A
O905       Ni910   1.909   1_655  S
O905       C2114   1.283       .  A
O906       C2113   1.278       .  A
O907        C912   1.284       .  A
O908       Ni910   1.917       .  S
O908        C911   1.281   1_455  A
Ni909     Ni1810   2.387       .  S
Ni910     Ni1809   2.387   1_456  S
C911       O2101   1.284   1_556  A
C911       C1170   1.487       .  S
C912       O2102   1.279   1_455  A
C912       C2389   1.503       .  S
C913       O2106   1.278       .  A
C913       C2354   1.462       .  S
C914       O2105   1.281       .  A
C914       C2338   1.470       .  S
O915       Ni923   1.919       .  S
O915        C925   1.279       .  A
O916       Ni923   1.913   1_655  S
O916        C926   1.281       .  A
O917       Ni923   1.917       .  S
O917        C927   1.280       .  A
O918       Ni923   1.925       .  S
O918        C928   1.281       .  A
O919       Ni924   1.916       .  S
O919       C2128   1.283       .  A
O920       Ni924   1.914       .  S
O920       C2127   1.283       .  A
O921       Ni924   1.909       .  S
O921       C2126   1.275       .  A
O922       Ni924   1.904       .  S
O922       C2125   1.280       .  A
Ni923     Ni2124   2.385   1_455  S
Ni924     Ni2123   2.386       .  S
C925       O2122   1.279       .  A
C925       C1157   1.460       .  S
C926       O2121   1.278       .  A
C926       C1141   1.470       .  S
C927       O2120   1.282   1_455  A
C927       C1122   1.502   1_455  S
C928       O2119   1.282   1_455  A
C928       C1109   1.494       .  S
O929       Ni935   1.920       .  S
O930       Ni953   1.906       .  S
O931        H954   0.973       .  S
O931      Ni1853   1.879       .  S
C932        O949   1.280       .  A
C932       O2141   1.279       .  A
C932       C1186   1.474       .  S
O933       Ni952   1.919       .  S
O934       Ni952   1.939       .  S
O934        C936   1.271       .  A
Ni935       O938   1.928       .  S
Ni935       O940   1.943       .  S
C936       O2146   1.299   1_455  A
C936       C1568   1.551   1_455  S
O937       Ni953   1.940       .  S
O937        C943   1.284   1_455  A
O938       C2143   1.281       .  A
C939       C1074   1.495   1_565  S
O940        C942   1.272       .  A
O941       Ni952   1.924       .  S
O941       C2132   1.281       .  A
C942       O2148   1.302   1_565  A
C942       C1562   1.554   1_565  S
C943       O2138   1.279       .  A
C943       C1173   1.474       .  S
H944        O945   0.959       .  S
O945      Ni1847   1.887   1_456  S
O946       Ni947   2.013       .  S
O946       C2136   1.299       .  A
Ni947       O951   1.915       .  S
Ni947       O949   1.918       .  S
Ni947      O1845   1.887       .  S
O948       Ni953   2.009   1_545  S
O948       C2142   1.296   1_445  A
C950       C1093   1.485       .  S
Ni953      O1831   1.887   1_455  S
O955       Ni961   1.919   1_545  S
O956       Ni979   1.906       .  S
O956        C965   1.275       .  A
O957        H980   0.966       .  S
O957       Ni961   1.897       .  S
O957      Ni2179   1.887       .  S
C958        O975   1.281       .  A
C958       O2167   1.281       .  A
C958       C1125   1.477       .  S
O959       Ni978   1.931       .  S
O960       Ni978   1.945       .  S
O960        C962   1.273       .  A
Ni961       O964   1.921       .  S
Ni961       O966   1.939       .  S
C962       O2172   1.301   1_455  A
C962       C1542   1.553   1_455  S
O963       Ni979   1.932       .  S
O963        C969   1.282   1_455  A
O964       C2169   1.279       .  A
C965       C1042   1.477       .  S
O966        C968   1.270       .  A
O967       Ni978   1.918       .  S
O967       C2158   1.281       .  A
C968       O2174   1.301   1_565  A
C968       C1536   1.549   1_565  S
C969       O2164   1.277       .  A
C969       C1106   1.493   1_655  S
H970        O971   0.967       .  S
O971      Ni2173   1.896   1_455  S
O971       Ni978   1.902       .  S
O972       Ni973   2.032       .  S
O972       C2162   1.308       .  A
Ni973       O977   1.925       .  S
Ni973       O975   1.924       .  S
Ni973      O2171   1.887       .  S
O974       Ni979   2.014   1_545  S
O974       C2168   1.300   1_445  A
C976        O977   1.280       .  A
C976       C1058   1.478       .  S
Ni979      O2157   1.884   1_455  S
O981       Ni989   1.910       .  S
O982       Ni989   1.922       .  S
O982        C992   1.283       .  A
O983       Ni989   1.916       .  S
O983        C993   1.278       .  A
O984        C994   1.279       .  A
O985       Ni990   1.898       .  S
O987       Ni990   1.910       .  S
O988       Ni990   1.922       .  S
C992       C1090   1.503       .  S
C993       C1013   1.462       .  S
C994       C1026   1.460       .  S
O995      Ni1003   1.915       .  S
O996      Ni1003   1.905       .  S
O997      Ni1003   1.907       .  S
O998      Ni1003   1.915       .  S
O999      Ni1004   1.903   1_545  S
O999       C1008   1.281       .  A
O1000     Ni1004   1.903       .  S
O1000      C1007   1.275       .  A
O1001     Ni1004   1.901       .  S
O1001      C1006   1.277   1_565  A
O1002     Ni1004   1.900       .  S
O1002      C1005   1.279   1_565  A
C1005      C1045   1.476   1_545  S
C1009      C1010   1.401       .  A
C1009      C1014   1.402       .  A
C1009      H1016   1.085       .  S
C1011      C1012   1.398       .  A
C1011      C1018   1.514       .  S
C1012      H1017   1.086       .  S
C1013      C1014   1.410       .  A
C1014      C1015   1.513       .  S
C1015      F1019   1.383       .  S
C1015      F1021   1.384       .  S
C1018      F1022   1.383       .  S
C1018      F1024   1.383       .  S
C1025      C1030   1.394       .  A
C1025      H1032   1.086       .  S
C1026      C1027   1.412       .  A
C1027      C1028   1.401       .  A
C1027      C1034   1.512       .  S
C1028      C1029   1.399       .  A
C1028      H1033   1.085       .  S
C1030      C1031   1.517       .  S
C1031      F1035   1.384   1_565  S
C1031      F1036   1.384       .  S
C1031      F1037   1.383       .  S
C1034      F1038   1.383       .  S
C1034      F1039   1.383       .  S
C1034      F1040   1.384       .  S
C1041      C1046   1.410       .  A
C1041      H1048   1.083       .  S
C1042      C1043   1.423       .  A
C1043      C1044   1.398       .  A
C1043      C1050   1.524       .  S
C1044      C1045   1.401       .  A
C1044      H1049   1.083       .  S
C1046      C1047   1.522       .  S
C1047      F1051   1.385       .  S
C1047      F1052   1.383       .  S
C1047      F1053   1.383       .  S
C1050      F1054   1.384       .  S
C1050      F1055   1.383       .  S
C1050      F1056   1.385       .  S
C1057      C1062   1.406       .  A
C1057      H1064   1.083   1_545  S
C1058      C1059   1.416       .  A
C1059      C1060   1.400       .  A
C1059      C1066   1.521       .  S
C1060      C1061   1.408       .  A
C1060      H1065   1.082       .  S
C1062      C1063   1.520   1_545  S
C1063      F1067   1.384       .  S
C1063      F1068   1.383       .  S
C1063      F1069   1.383   1_565  S
C1066      F1070   1.381       .  S
C1066      F1071   1.379       .  S
C1066      F1072   1.386       .  S
C1073      C1078   1.408       .  A
C1073      H1080   1.083       .  S
C1075      C1076   1.400       .  A
C1075      C1082   1.522       .  S
C1076      H1081   1.082       .  S
C1078      C1079   1.517       .  S
C1079      F1083   1.384       .  S
C1079      F1084   1.380   1_556  S
C1079      F1085   1.383       .  S
C1082      F1086   1.382       .  S
C1082      F1087   1.384       .  S
C1082      F1088   1.384       .  S
C1089      C1090   1.415   1_554  A
C1089      C1094   1.413       .  A
C1089      H1096   1.082       .  S
C1091      C1092   1.408       .  A
C1091      C1098   1.523       .  S
C1092      H1097   1.083   1_554  S
C1093      C1094   1.411       .  A
C1094      C1095   1.516       .  S
C1095      F1099   1.385       .  S
C1095      F1100   1.383   1_554  S
C1098      F1102   1.383   1_554  S
C1105      C1106   1.409       .  A
C1105      C1110   1.412       .  A
C1105      H1112   1.084       .  S
C1106      C2307   1.425   1_455  A
C1107      C2306   1.420       .  A
C1107      C1108   1.405       .  A
C1107      C1114   1.522       .  S
C1108      C2309   1.408       .  A
C1108      H1113   1.082       .  S
C1109      C2308   1.404   1_455  A
C1109      C1110   1.422       .  A
C1110      C1111   1.519       .  S
C1111      F1115   1.383       .  S
C1111      F1116   1.386       .  S
C1111      F1117   1.382       .  S
C1114      F1118   1.384       .  S
C1114      F1119   1.382       .  S
C1114      F1120   1.384       .  S
C1121      C2322   1.406       .  A
C1121      C1126   1.403       .  A
C1121      H1128   1.082       .  S
C1122      C2321   1.414       .  A
C1122      C1123   1.427   1_655  A
C1123      C1124   1.403       .  A
C1123      C1130   1.521       .  S
C1124      C2325   1.401       .  A
C1124      H1129   1.083       .  S
C1125      C2324   1.401       .  A
C1125      C1126   1.411       .  A
C1126      C1127   1.512       .  S
C1127      F1131   1.383       .  S
C1127      F1132   1.380       .  S
C1127      F1133   1.384       .  S
C1130      F1134   1.382       .  S
C1130      F1135   1.384       .  S
C1130      F1136   1.385       .  S
C1137      C1138   1.397       .  A
C1137      C1142   1.404       .  A
C1137      H1144   1.084       .  S
C1138      C2114   1.469       .  S
C1138      C2339   1.409       .  A
C1139      C2338   1.414       .  A
C1139      C1140   1.402       .  A
C1139      C1146   1.503       .  S
C1140      C2341   1.398       .  A
C1140      H1145   1.084       .  S
C1141      C2340   1.401       .  A
C1141      C1142   1.419       .  A
C1142      C1143   1.509       .  S
C1143      F1147   1.382       .  S
C1143      F1148   1.378       .  S
C1143      F1149   1.385       .  S
C1146      F1150   1.385       .  S
C1146      F1151   1.383   1_556  S
C1146      F1152   1.376       .  S
C1153      C2354   1.399       .  A
C1153      C1158   1.400       .  A
C1153      H1160   1.085       .  S
C1154      C2113   1.465       .  S
C1154      C2353   1.401       .  A
C1154      C1155   1.412       .  A
C1155      C1156   1.401       .  A
C1155      C1162   1.512       .  S
C1156      C1157   1.401       .  A
C1156      H1161   1.085       .  S
C1157      C2358   1.412       .  A
C1158      C2357   1.409       .  A
C1158      C1159   1.509       .  S
C1159      F1163   1.384       .  S
C1159      F1164   1.384       .  S
C1159      F1165   1.382       .  S
C1162      F1166   1.384       .  S
C1162      F1167   1.383       .  S
C1162      F1168   1.384       .  S
C1169      C2070   1.408       .  A
C1169      C1174   1.410       .  A
C1169      H1176   1.083       .  S
C1170      C2069   1.407   1_556  A
C1170      C1171   1.424       .  A
C1171      C1172   1.408       .  A
C1171      C1178   1.521       .  S
C1172      C1173   1.400       .  A
C1172      H1177   1.085       .  S
C1173      C2074   1.410   1_556  A
C1174      C2073   1.413       .  A
C1174      C1175   1.517       .  S
C1175      F1179   1.385       .  S
C1175      F1181   1.384       .  S
C1178      F1182   1.382       .  S
C1178      F1183   1.382   1_655  S
C1178      F1184   1.385       .  S
C1185      C1190   1.414       .  A
C1185      H1192   1.083       .  S
C1186      C2387   1.414       .  A
C1187      C2386   1.412       .  A
C1187      C1188   1.408       .  A
C1187      C1194   1.519       .  S
C1188      C2389   1.412       .  A
C1188      H1193   1.082       .  S
C1189      C2112   1.495       .  S
C1189      C2388   1.411       .  A
C1190      C1191   1.522       .  S
C1191      F1195   1.383       .  S
C1191      F1196   1.379       .  S
C1194      F1198   1.384       .  S
C1194      F1199   1.382       .  S
C1194      F1200   1.384       .  S
O1201     Ni1509   1.919       .  S
O1202     Ni1209   1.916       .  S
O1203     Ni1209   1.909   1_455  S
O1203      C1213   1.282       .  A
O1204     Ni1509   1.926       .  S
O1204      C1214   1.280       .  A
O1205     Ni1210   1.910       .  S
O1206     Ni1510   1.911   1_554  S
O1207     Ni1510   1.921       .  S
O1207      C1212   1.285   1_556  A
O1208     Ni1210   1.925       .  S
O1208      C1211   1.282       .  A
Ni1209     O1501   1.924       .  S
Ni1209     O1504   1.920       .  S
Ni1210     O1506   1.913       .  S
Ni1210     O1507   1.924       .  S
C1211      C1470   1.490       .  S
O1215     Ni1223   1.920       .  S
O1215      C1225   1.278       .  A
O1216     Ni1223   1.911       .  S
O1216      C1226   1.282       .  A
O1217     Ni1223   1.912       .  S
O1217      C1227   1.279       .  A
O1218     Ni1223   1.918       .  S
O1218      C1228   1.279       .  A
O1219     Ni1224   1.925       .  S
O1220     Ni1224   1.936       .  S
O1221     Ni1224   1.916       .  S
O1222     Ni1224   1.908   1_455  S
C1225      C1457   1.462       .  S
C1226      C1441   1.465       .  S
C1227      C1422   1.501       .  S
C1228      C1409   1.495       .  S
O1229     Ni1235   1.916       .  S
O1229      C1850   1.273       .  A
O1230     Ni1253   1.915       .  S
O1230      C1539   1.276       .  A
O1231      H1254   0.972       .  S
O1231     Ni1535   1.902   1_554  S
O1231     Ni1847   1.946       .  S
C1232      O1249   1.287   1_455  A
C1232      C1486   1.480       .  S
O1233     Ni1252   1.914       .  S
O1233      C1839   1.270   1_554  A
O1234     Ni1252   1.942       .  S
O1234      C1236   1.271       .  A
Ni1235     O1238   1.926       .  S
Ni1235     O1240   1.945       .  S
Ni1235     O1531   1.902       .  S
O1237     Ni1253   1.940       .  S
O1237      C1243   1.285       .  A
C1239      O1530   1.278   1_554  A
C1239      O1833   1.274       .  A
C1239      C1374   1.478       .  S
O1240      C1242   1.273       .  A
O1241     Ni1252   1.909       .  S
C1243      C1473   1.505       .  S
H1244      O1245   0.963       .  S
O1245     Ni1853   1.945   1_545  S
O1245     Ni1552   1.898       .  S
O1246     Ni1247   2.029       .  S
Ni1247     O1251   1.926       .  S
Ni1247     O1249   1.942       .  S
Ni1247     O1831   1.948   1_544  S
O1248     Ni1253   2.010       .  S
C1250      O1829   1.275       .  A
C1250      O1551   1.276   1_565  A
C1250      C1393   1.482       .  S
O1251      C1550   1.280   1_554  A
Ni1252     O1545   1.901   1_554  S
Ni1253     O1845   1.937       .  S
O1255     Ni1261   1.930       .  S
O1255      C1876   1.278       .  A
O1256     Ni1279   1.904       .  S
O1256      C1265   1.274       .  A
O1257      H1280   0.966       .  S
O1257     Ni1261   1.902       .  S
O1257     Ni1873   1.931       .  S
C1258      O1275   1.279   1_455  A
C1258      C1425   1.502   1_455  S
O1259     Ni1278   1.920       .  S
O1259      C1865   1.274       .  A
O1260     Ni1278   1.940       .  S
O1260      C1262   1.271       .  A
Ni1261     O1264   1.926       .  S
Ni1261     O1266   1.949       .  S
O1263     Ni1279   1.923       .  S
O1263      C1269   1.279       .  A
C1265      O1859   1.278       .  A
C1265      C1342   1.477       .  S
O1266      C1268   1.274   1_655  A
O1267     Ni1278   1.914       .  S
C1269      C1406   1.492       .  S
H1270      O1271   0.966       .  S
O1271     Ni1879   1.930   1_545  S
O1271     Ni1278   1.895       .  S
O1272     Ni1273   2.025       .  S
Ni1273     O1277   1.907       .  S
Ni1273     O1275   1.933       .  S
Ni1273     O1857   1.928   1_545  S
O1274     Ni1279   2.015       .  S
C1276      O1855   1.278   1_545  A
C1276      O1277   1.275       .  A
C1276      C1358   1.473       .  S
Ni1279     O1871   1.927       .  S
O1281     Ni1289   1.910       .  S
O1281      C1591   1.283       .  A
O1282     Ni1289   1.922   1_545  S
O1282      C1292   1.284   1_545  A
O1283     Ni1289   1.911   1_545  S
O1283      C1293   1.277       .  A
O1284     Ni1589   1.896   1_564  S
O1284      C1294   1.279       .  A
O1285     Ni1290   1.913   1_554  S
O1285      C1894   1.276       .  A
O1286     Ni1590   1.902       .  S
O1286      C1893   1.280       .  A
O1287     Ni1290   1.918       .  S
O1287      C2192   1.281   1_556  A
O1288     Ni1290   1.931   1_554  S
O1288      C1891   1.284       .  A
Ni1289     O1584   1.905       .  S
Ni1289    Ni2190   2.386       .  S
Ni1290     O1586   1.899       .  S
Ni1290    Ni2189   2.388   1_556  S
C1291      O1581   1.282       .  A
C1291      O1888   1.280   1_545  A
C1291      C1977   1.498       .  S
C1292      O2187   1.279       .  A
C1292      C1390   1.499       .  S
C1293      O1886   1.280   1_545  A
C1293      C1313   1.459       .  S
C1294      O1885   1.277       .  A
C1294      C1326   1.455       .  S
O1295     Ni1303   1.914       .  S
O1295      C1905   1.280       .  A
O1296     Ni1303   1.914       .  S
O1296      C1906   1.282       .  A
O1297     Ni1303   1.910       .  S
O1297      C1907   1.282   1_545  A
O1298     Ni1303   1.915       .  S
O1298      C1908   1.277       .  A
O1299     Ni1304   1.906       .  S
O1299      C1308   1.281       .  A
O1300     Ni1304   1.909       .  S
O1300      C1307   1.276       .  A
O1301     Ni1304   1.915       .  S
O1301      C1306   1.279       .  A
O1302     Ni1304   1.909       .  S
O1302      C1305   1.282       .  A
Ni1303    Ni1904   2.390   1_545  S
Ni1304    Ni1903   2.388       .  S
C1305      O1895   1.280       .  A
C1305      C1345   1.491       .  S
C1306      O1896   1.282       .  A
C1306      C1961   1.488       .  S
C1307      O1897   1.281       .  A
C1307      C1929   1.458       .  S
C1308      O1898   1.277       .  A
C1308      C1910   1.459       .  S
C1309      C1310   1.402       .  A
C1309      C1314   1.403       .  A
C1309      H1316   1.084       .  S
C1310      C1908   1.459       .  S
C1310      C1911   1.409       .  A
C1311      C1910   1.410       .  A
C1311      C1312   1.402       .  A
C1311      C1318   1.513       .  S
C1312      C1913   1.402       .  A
C1312      H1317   1.085       .  S
C1313      C1912   1.402       .  A
C1313      C1314   1.409       .  A
C1314      C1315   1.513       .  S
C1315      F1319   1.384       .  S
C1315      F1920   1.384       .  S
C1315      F1321   1.383       .  S
C1318      F1322   1.383       .  S
C1318      F1923   1.384       .  S
C1318      F1324   1.384       .  S
F1320      C1915   1.382       .  S
F1323      C1918   1.382       .  S
C1325      C1926   1.400       .  A
C1325      C1330   1.399       .  A
C1325      H1332   1.085       .  S
C1326      C1925   1.400       .  A
C1326      C1327   1.409       .  A
C1327      C1328   1.402       .  A
C1327      C1334   1.513       .  S
C1328      C1329   1.401       .  A
C1328      H1333   1.084       .  S
C1329      C1907   1.457       .  S
C1329      C1930   1.410       .  A
C1330      C1929   1.414       .  A
C1330      C1331   1.514       .  S
C1331      F1335   1.383       .  S
C1331      F1336   1.384       .  S
C1331      F1337   1.383       .  S
C1334      F1338   1.384       .  S
C1334      F1339   1.382       .  S
C1334      F1340   1.385       .  S
C1341      C1942   1.402   1_545  A
C1341      C1346   1.406       .  A
C1341      H1348   1.083       .  S
C1342      C1941   1.401       .  A
C1342      C1343   1.414       .  A
C1343      C1344   1.401       .  A
C1343      C1350   1.518       .  S
C1344      C1345   1.408       .  A
C1344      H1349   1.083       .  S
C1345      C1946   1.424       .  A
C1346      C1945   1.420   1_545  A
C1346      C1347   1.519       .  S
C1347      F1351   1.384       .  S
C1347      F1352   1.384       .  S
C1347      F1353   1.383       .  S
C1350      F1354   1.384       .  S
C1350      F1355   1.382       .  S
C1350      F1356   1.386       .  S
C1357      C1958   1.401       .  A
C1357      C1362   1.407       .  A
C1357      H1364   1.083       .  S
C1358      C1957   1.400   1_545  A
C1358      C1359   1.416       .  A
C1359      C1360   1.401       .  A
C1359      C1366   1.519       .  S
C1360      C1361   1.406       .  A
C1360      H1365   1.084       .  S
C1361      C1906   1.486       .  S
C1361      C1962   1.425   1_545  A
C1362      C1961   1.426       .  A
C1362      C1363   1.520       .  S
C1363      F1367   1.385       .  S
C1363      F1368   1.383       .  S
C1363      F1369   1.382       .  S
C1366      F1370   1.383       .  S
C1366      F1371   1.381       .  S
C1366      F1372   1.384       .  S
C1373      C1674   1.402       .  A
C1373      C1378   1.410       .  A
C1373      H1380   1.082       .  S
C1374      C1673   1.401       .  A
C1374      C1975   1.416   1_554  A
C1375      C1974   1.422   1_554  A
C1375      C1376   1.402       .  A
C1375      C1382   1.525       .  S
C1376      C1977   1.408   1_554  A
C1376      H1381   1.081       .  S
C1377      C1891   1.491       .  S
C1377      C1976   1.406   1_554  A
C1377      C1678   1.420       .  A
C1378      C1677   1.426       .  A
C1378      C1379   1.519       .  S
C1379      F1383   1.385       .  S
C1379      F1384   1.383       .  S
C1379      F1385   1.384       .  S
C1382      F1386   1.383       .  S
C1382      F1387   1.383   1_554  S
C1382      F1388   1.385       .  S
C1389      C1390   1.413   1_545  A
C1389      C1394   1.410       .  A
C1389      H1396   1.082       .  S
C1390      C1991   1.428       .  A
C1391      C1990   1.422       .  A
C1391      C1392   1.402       .  A
C1391      C1398   1.521       .  S
C1392      C1993   1.399       .  A
C1392      H1397   1.084       .  S
C1393      C1992   1.402       .  A
C1393      C1394   1.412   1_565  A
C1394      C1395   1.517       .  S
C1395      F1399   1.384       .  S
C1395      F1400   1.383       .  S
C1395      F1701   1.381       .  S
C1398      F1402   1.383       .  S
C1398      F1703   1.383       .  S
C1398      F1704   1.385       .  S
F1401      C1695   1.383   1_554  S
F1403      C1698   1.383       .  S
F1404      C1698   1.385       .  S
C1405      C1406   1.408       .  A
C1405      C1410   1.412       .  A
C1405      H1412   1.083       .  S
C1407      C1408   1.403       .  A
C1407      C1414   1.519       .  S
C1408      H1413   1.082       .  S
C1409      C1410   1.424       .  A
C1410      C1411   1.520       .  S
C1411      F1415   1.382       .  S
C1411      F1416   1.385       .  S
C1411      F1417   1.384       .  S
C1414      F1418   1.381       .  S
C1414      F1419   1.383       .  S
C1414      F1420   1.382       .  S
C1421      C1426   1.418       .  A
C1421      H1428   1.082       .  S
C1422      C1423   1.427       .  A
C1423      C1424   1.403       .  A
C1423      C1430   1.523       .  S
C1424      H1429   1.083       .  S
C1425      C1426   1.425       .  A
C1426      C1427   1.518       .  S
C1427      F1431   1.385       .  S
C1427      F1432   1.383       .  S
C1427      F1433   1.380       .  S
C1430      F1434   1.383       .  S
C1430      F1435   1.384       .  S
C1430      F1436   1.385       .  S
C1437      C1438   1.398       .  A
C1437      C1442   1.404       .  A
C1437      H1444   1.084       .  S
C1439      C1440   1.402       .  A
C1439      C1446   1.513       .  S
C1440      H1445   1.085       .  S
C1441      C1442   1.416       .  A
C1442      C1443   1.510       .  S
C1443      F1447   1.382       .  S
C1443      F1448   1.379       .  S
C1443      F1449   1.385       .  S
C1446      F1450   1.381       .  S
C1446      F1451   1.384       .  S
C1446      F1452   1.384       .  S
C1453      C1458   1.405       .  A
C1453      H1460   1.080       .  S
C1454      C1455   1.412       .  A
C1455      C1456   1.401       .  A
C1455      C1462   1.511       .  S
C1456      C1457   1.401       .  A
C1456      H1461   1.085       .  S
C1458      C1459   1.515       .  S
C1459      F1463   1.385       .  S
C1459      F1464   1.383       .  S
C1459      F1465   1.382       .  S
C1462      F1466   1.384       .  S
C1462      F1467   1.382       .  S
C1462      F1468   1.384       .  S
C1469      C1474   1.408       .  A
C1469      H1476   1.082       .  S
C1470      C1471   1.414       .  A
C1471      C1472   1.405       .  A
C1471      C1478   1.519       .  S
C1472      C1473   1.412       .  A
C1472      H1477   1.082       .  S
C1474      C1475   1.520       .  S
C1475      F1479   1.383       .  S
C1475      F1780   1.381       .  S
C1475      F1481   1.385       .  S
C1478      F1482   1.382       .  S
C1478      F1483   1.383       .  S
C1478      F1484   1.385       .  S
F1480      C1775   1.383       .  S
C1485      C1786   1.398   1_655  A
C1485      C1490   1.411       .  A
C1485      H1492   1.083       .  S
C1486      C1785   1.399   1_455  A
C1487      C1488   1.404       .  A
C1487      C1494   1.520       .  S
C1488      H1493   1.082       .  S
C1489      C1790   1.430   1_455  A
C1490      C1789   1.426       .  A
C1490      C1491   1.517       .  S
C1491      F1495   1.378       .  S
C1491      F1496   1.383       .  S
C1491      F1797   1.383       .  S
C1494      F1498   1.383       .  S
C1494      F1499   1.383       .  S
C1494      F1500   1.385       .  S
F1497      C1791   1.383       .  S
O1502     Ni1509   1.906       .  S
O1503     Ni1509   1.918       .  S
O1503      C1513   1.283   1_655  A
O1504      C1514   1.278   1_554  A
O1505     Ni1510   1.905       .  S
O1507      C1512   1.284       .  A
O1508     Ni1510   1.920       .  S
O1508      C1511   1.281       .  A
C1511      C1770   1.474       .  S
O1515     Ni1523   1.925       .  S
O1515      C1525   1.280       .  A
O1516     Ni1523   1.921       .  S
O1516      C1526   1.284       .  A
O1517     Ni1523   1.911       .  S
O1517      C1527   1.278       .  A
O1518     Ni1523   1.911       .  S
O1518      C1528   1.277       .  A
O1519     Ni1524   1.922       .  S
O1520     Ni1524   1.936       .  S
O1521     Ni1524   1.915       .  S
O1522     Ni1524   1.897   1_455  S
C1525      C1757   1.462       .  S
C1526      C1741   1.467       .  S
C1527      C1722   1.500       .  S
C1528      C1709   1.504       .  S
O1529     Ni1535   1.915       .  S
O1529      C2150   1.273       .  A
O1530     Ni1553   1.925       .  S
O1531      H1554   0.972       .  S
O1531     Ni2147   1.945       .  S
C1532      O1549   1.284   1_455  A
C1532      C1786   1.475       .  S
O1533     Ni1552   1.913   1_565  S
O1533      C2139   1.273       .  A
O1534     Ni1552   1.937       .  S
O1534      C1536   1.271       .  A
Ni1535     O1538   1.923       .  S
Ni1535     O1540   1.938       .  S
O1537     Ni1553   1.940       .  S
O1537      C1543   1.286       .  A
C1539      O2133   1.270       .  A
C1539      C1674   1.481       .  S
O1540      C1542   1.271       .  A
O1541     Ni1552   1.920       .  S
C1543      C1773   1.483       .  S
H1544      O1545   0.961       .  S
O1545     Ni2153   1.933   1_545  S
O1546     Ni1547   2.019   1_565  S
Ni1547     O1551   1.921       .  S
Ni1547     O1549   1.937       .  S
Ni1547     O2131   1.942   1_545  S
O1548     Ni1553   2.035       .  S
C1550      O2129   1.270       .  A
C1550      C1693   1.473       .  S
Ni1553     O2145   1.947   1_556  S
O1555     Ni1561   1.928       .  S
O1555      C2176   1.278       .  A
O1556     Ni1579   1.903       .  S
O1556      C1565   1.275       .  A
O1557      H1580   0.966       .  S
O1557     Ni1561   1.907       .  S
O1557     Ni2173   1.931       .  S
C1558      O1575   1.283   1_455  A
C1558      C1725   1.500       .  S
O1559     Ni1578   1.937       .  S
O1559      C2165   1.278   1_545  A
O1560     Ni1578   1.941       .  S
O1560      C1562   1.273       .  A
Ni1561     O1564   1.922       .  S
Ni1561     O1566   1.946       .  S
O1563     Ni1579   1.938       .  S
O1563      C1569   1.286       .  A
C1565      O2159   1.274       .  A
C1565      C1642   1.473       .  S
O1566      C1568   1.274       .  A
O1567     Ni1578   1.931       .  S
C1569      C1706   1.489       .  S
H1570      O1571   0.967       .  S
O1571     Ni2179   1.933   1_545  S
O1571     Ni1578   1.899       .  S
O1572     Ni1573   2.000       .  S
Ni1573     O1577   1.908       .  S
Ni1573     O1575   1.939       .  S
Ni1573     O2157   1.930   1_545  S
O1574     Ni1579   2.012       .  S
C1576      O2155   1.276   1_545  A
C1576      O1577   1.275       .  A
C1576      C1658   1.476       .  S
Ni1579     O2171   1.936       .  S
O1581     Ni1589   1.908       .  S
O1582     Ni1589   1.916       .  S
O1582      C1592   1.282       .  A
O1583     Ni1589   1.911       .  S
O1583      C1593   1.275       .  A
O1584      C1594   1.280       .  A
O1585     Ni1590   1.913       .  S
O1585      C2194   1.276       .  A
O1586      C2193   1.279       .  A
O1587     Ni1590   1.919       .  S
O1587      C1892   1.282       .  A
O1588     Ni1590   1.923       .  S
O1588      C2191   1.281       .  A
Ni1589    Ni1890   2.388   1_545  S
Ni1590    Ni1889   2.387       .  S
C1591      O2188   1.278       .  A
C1591      C2277   1.491       .  S
C1592      O1887   1.281   1_545  A
C1592      C1690   1.491       .  S
C1593      O2186   1.283       .  A
C1593      C1613   1.462       .  S
C1594      O2185   1.278       .  A
C1594      C1626   1.462       .  S
O1595     Ni1603   1.916       .  S
O1595      C2205   1.280   1_545  A
O1596     Ni1603   1.908       .  S
O1596      C2206   1.282   1_545  A
O1597     Ni1603   1.904   1_565  S
O1597      C2207   1.281       .  A
O1598     Ni1603   1.907       .  S
O1598      C2208   1.275       .  A
O1599     Ni1604   1.894       .  S
O1599      C1608   1.277       .  A
O1600     Ni1604   1.900       .  S
O1600      C1607   1.273       .  A
O1601     Ni1604   1.924       .  S
O1601      C1606   1.282       .  A
O1602     Ni1604   1.913       .  S
O1602      C1605   1.284       .  A
Ni1603    Ni2204   2.387   1_545  S
Ni1604    Ni2203   2.388       .  S
C1605      O2195   1.275       .  A
C1605      C1645   1.484       .  S
C1606      O2196   1.279       .  A
C1606      C2261   1.495       .  S
C1607      O2197   1.284       .  A
C1607      C2229   1.458       .  S
C1608      O2198   1.280       .  A
C1608      C2210   1.459       .  S
C1609      C1610   1.400       .  A
C1609      C1614   1.399       .  A
C1609      H1616   1.085       .  S
C1610      C2208   1.456       .  S
C1610      C2211   1.410       .  A
C1611      C2210   1.415       .  A
C1611      C1612   1.397       .  A
C1611      C1618   1.516       .  S
C1612      C2213   1.398       .  A
C1612      H1617   1.086       .  S
C1613      C2212   1.403       .  A
C1613      C1614   1.406       .  A
C1614      C1615   1.508       .  S
C1615      F1619   1.383       .  S
C1615      F2220   1.382       .  S
C1615      F1621   1.385       .  S
C1618      F1622   1.385       .  S
C1618      F2223   1.382       .  S
C1618      F1624   1.383       .  S
F1620      C2215   1.383       .  S
F1623      C2218   1.384       .  S
C1625      C2226   1.402       .  A
C1625      C1630   1.401       .  A
C1625      H1632   1.084       .  S
C1626      C2225   1.402       .  A
C1626      C1627   1.412       .  A
C1627      C1628   1.403       .  A
C1627      C1634   1.514       .  S
C1628      C1629   1.401       .  A
C1628      H1633   1.085       .  S
C1629      C2207   1.462       .  S
C1629      C2230   1.410       .  A
C1630      C2229   1.408       .  A
C1630      C1631   1.511       .  S
C1631      F1635   1.382       .  S
C1631      F1636   1.384       .  S
C1631      F1637   1.384       .  S
C1634      F1638   1.383       .  S
C1634      F1639   1.381       .  S
C1634      F1640   1.383       .  S
C1641      C2242   1.405       .  A
C1641      C1646   1.412       .  A
C1641      H1648   1.083   1_565  S
C1642      C2241   1.401       .  A
C1642      C1643   1.418       .  A
C1643      C1644   1.399       .  A
C1643      C1650   1.523       .  S
C1644      C1645   1.405       .  A
C1644      H1649   1.082       .  S
C1645      C2246   1.426       .  A
C1646      C2245   1.426       .  A
C1646      C1647   1.520   1_565  S
C1647      F1651   1.385       .  S
C1647      F1652   1.382   1_545  S
C1647      F1653   1.382       .  S
C1650      F1654   1.383       .  S
C1650      F1655   1.383       .  S
C1650      F1656   1.385       .  S
C1657      C2258   1.402       .  A
C1657      C1662   1.412       .  A
C1657      H1664   1.083       .  S
C1658      C2257   1.400   1_545  A
C1658      C1659   1.412       .  A
C1659      C1660   1.398       .  A
C1659      C1666   1.516       .  S
C1660      C1661   1.409   1_545  A
C1660      H1665   1.083       .  S
C1661      C2206   1.496       .  S
C1661      C2262   1.427       .  A
C1662      C2261   1.426       .  A
C1662      C1663   1.520       .  S
C1663      F1667   1.384       .  S
C1663      F1668   1.383       .  S
C1663      F1669   1.385       .  S
C1666      F1670   1.381       .  S
C1666      F1671   1.381       .  S
C1666      F1672   1.385       .  S
C1673      C1678   1.412       .  A
C1673      H1680   1.082       .  S
C1674      C2275   1.420       .  A
C1675      C2274   1.410   1_545  A
C1675      C1676   1.398       .  A
C1675      C1682   1.521       .  S
C1676      C2277   1.409   1_545  A
C1676      H1681   1.083       .  S
C1677      C2191   1.496       .  S
C1677      C2276   1.409       .  A
C1678      C1679   1.514       .  S
C1679      F1683   1.384       .  S
C1679      F1684   1.380       .  S
C1679      F1685   1.382       .  S
C1682      F1686   1.382       .  S
C1682      F1687   1.385       .  S
C1682      F1688   1.385       .  S
C1689      C1690   1.411       .  A
C1689      C1694   1.409       .  A
C1689      H1696   1.083       .  S
C1690      C2291   1.425   1_545  A
C1691      C2290   1.425       .  A
C1691      C1692   1.402       .  A
C1691      C1698   1.522       .  S
C1692      C2293   1.399       .  A
C1692      H1697   1.084       .  S
C1693      C2292   1.401   1_545  A
C1693      C1694   1.409       .  A
C1694      C1695   1.516       .  S
C1695      F1699   1.384       .  S
C1695      F1700   1.383       .  S
C1698      F1702   1.383   1_554  S
C1705      C1706   1.399       .  A
C1705      C1710   1.409       .  A
C1705      H1712   1.083       .  S
C1707      C1708   1.404       .  A
C1707      C1714   1.519       .  S
C1708      H1713   1.083       .  S
C1709      C1710   1.431       .  A
C1710      C1711   1.522       .  S
C1711      F1715   1.384       .  S
C1711      F1716   1.385       .  S
C1711      F1717   1.383       .  S
C1714      F1718   1.383   1_655  S
C1714      F1719   1.382       .  S
C1714      F1720   1.384       .  S
C1721      C1726   1.414       .  A
C1721      H1728   1.082       .  S
C1722      C1723   1.426       .  A
C1723      C1724   1.407       .  A
C1723      C1730   1.524       .  S
C1724      H1729   1.081       .  S
C1725      C1726   1.419   1_455  A
C1726      C1727   1.515       .  S
C1727      F1731   1.384       .  S
C1727      F1732   1.383       .  S
C1727      F1733   1.380       .  S
C1730      F1734   1.381       .  S
C1730      F1735   1.382       .  S
C1730      F1736   1.385       .  S
C1737      C1738   1.400       .  A
C1737      C1742   1.403       .  A
C1737      H1744   1.085       .  S
C1739      C1740   1.401       .  A
C1739      C1746   1.505       .  S
C1740      H1745   1.085       .  S
C1741      C1742   1.416       .  A
C1742      C1743   1.514       .  S
C1743      F1747   1.381       .  S
C1743      F1748   1.383       .  S
C1743      F1749   1.380       .  S
C1746      F1750   1.382   1_556  S
C1746      F1751   1.380       .  S
C1746      F1752   1.384       .  S
C1753      C1758   1.398       .  A
C1753      H1760   1.085       .  S
C1754      C1755   1.411       .  A
C1755      C1756   1.400       .  A
C1755      C1762   1.515       .  S
C1756      C1757   1.402       .  A
C1756      H1761   1.083       .  S
C1758      C1759   1.514       .  S
C1759      F1763   1.384       .  S
C1759      F1764   1.385       .  S
C1759      F1765   1.383       .  S
C1762      F1766   1.384       .  S
C1762      F1767   1.383       .  S
C1762      F1768   1.382       .  S
C1769      C1774   1.409       .  A
C1769      H1776   1.082       .  S
C1770      C1771   1.411       .  A
C1771      C1772   1.407       .  A
C1771      C1778   1.517       .  S
C1772      C1773   1.407       .  A
C1772      H1777   1.083       .  S
C1774      C1775   1.518       .  S
C1775      F1779   1.384       .  S
C1775      F1781   1.383       .  S
C1778      F1782   1.383       .  S
C1778      F1783   1.385       .  S
C1778      F1784   1.384       .  S
C1785      C1790   1.412       .  A
C1785      H1792   1.083       .  S
C1787      C1788   1.409       .  A
C1787      C1794   1.517       .  S
C1788      H1793   1.082       .  S
C1790      C1791   1.521       .  S
C1791      F1795   1.381       .  S
C1791      F1796   1.379       .  S
C1794      F1798   1.383       .  S
C1794      F1799   1.383       .  S
C1794      F1800   1.384       .  S
O1801     Ni2109   1.924       .  S
O1802     Ni1809   1.916       .  S
O1803     Ni1809   1.909   1_455  S
O1803      C1813   1.281       .  A
O1804     Ni2109   1.917       .  S
O1804      C1814   1.278       .  A
O1805     Ni1810   1.910       .  S
O1806     Ni2110   1.917   1_554  S
O1807     Ni2110   1.930       .  S
O1807      C1812   1.286   1_556  A
O1808     Ni1810   1.912       .  S
O1808      C1811   1.278       .  A
Ni1809     O2101   1.923       .  S
Ni1809     O2104   1.915   1_554  S
Ni1810     O2106   1.915       .  S
Ni1810     O2107   1.903       .  S
C1811      C2070   1.489       .  S
O1815     Ni1823   1.919       .  S
O1815      C1825   1.278       .  A
O1816     Ni1823   1.912       .  S
O1816      C1826   1.282       .  A
O1817     Ni1823   1.916       .  S
O1817      C1827   1.279       .  A
O1818     Ni1823   1.914       .  S
O1818      C1828   1.278       .  A
O1819     Ni1824   1.923       .  S
O1820     Ni1824   1.935       .  S
O1821     Ni1824   1.914       .  S
O1822     Ni1824   1.901   1_455  S
C1825      C2057   1.462       .  S
C1826      C2041   1.466       .  S
C1827      C2022   1.502       .  S
C1828      C2009   1.499       .  S
O1829     Ni1835   1.920       .  S
O1830     Ni1853   1.908       .  S
O1830      C2139   1.275       .  A
O1831      H1854   0.974   1_556  S
O1831     Ni2135   1.901       .  S
C1832      O1849   1.285   1_455  A
C1832      C2086   1.485       .  S
O1833     Ni1852   1.921       .  S
O1834     Ni1852   1.941       .  S
O1834      C1836   1.273       .  A
Ni1835     O1838   1.921       .  S
Ni1835     O1840   1.945       .  S
Ni1835     O2131   1.909       .  S
O1837     Ni1853   1.941       .  S
O1837      C1843   1.285       .  A
C1839      O2130   1.277   1_545  A
C1839      C1974   1.485       .  S
O1840      C1842   1.273       .  A
O1841     Ni1852   1.917       .  S
C1843      C2073   1.479       .  S
H1844      O1845   0.961       .  S
O1845     Ni2152   1.893       .  S
O1846     Ni1847   2.022       .  S
Ni1847     O1851   1.911       .  S
Ni1847     O1849   1.937       .  S
O1848     Ni1853   2.031   1_545  S
C1850      O2151   1.274       .  A
C1850      C1993   1.471       .  S
O1851      C2150   1.274   1_554  A
Ni1852     O2145   1.904       .  S
O1855     Ni1861   1.927       .  S
O1856     Ni1879   1.904   1_545  S
O1856      C1865   1.274       .  A
O1857      H1880   0.966       .  S
O1857     Ni1861   1.901       .  S
C1858      O1875   1.282   1_455  A
C1858      C2025   1.495       .  S
O1859     Ni1878   1.938       .  S
O1860     Ni1878   1.943       .  S
O1860      C1862   1.272       .  A
Ni1861     O1864   1.918       .  S
Ni1861     O1866   1.949       .  S
O1863     Ni1879   1.930       .  S
O1863      C1869   1.282       .  A
C1865      C1942   1.472   1_545  S
O1866      C1868   1.274       .  A
O1867     Ni1878   1.927       .  S
C1869      C2006   1.485       .  S
H1870      O1871   0.967       .  S
O1871     Ni1878   1.905       .  S
O1872     Ni1873   2.015       .  S
Ni1873     O1877   1.896       .  S
Ni1873     O1875   1.933       .  S
O1874     Ni1879   2.021   1_545  S
C1876      O1877   1.271       .  A
C1876      C1958   1.470       .  S
O1881     Ni1889   1.902       .  S
O1881      C2191   1.281       .  A
O1882     Ni1889   1.909       .  S
O1882      C1892   1.280       .  A
O1883     Ni1889   1.918       .  S
O1883      C1893   1.278       .  A
O1884     Ni2189   1.911       .  S
O1884      C1894   1.283       .  A
O1885     Ni1890   1.914   1_554  S
O1886     Ni2190   1.906       .  S
O1887     Ni1890   1.921       .  S
O1888     Ni1890   1.919       .  S
Ni1889     O2184   1.909       .  S
Ni1890     O2186   1.908   1_565  S
C1891      O2181   1.281       .  A
C1892      C1990   1.487       .  S
C1893      C1913   1.461       .  S
C1894      C1926   1.463       .  S
O1895     Ni1903   1.917       .  S
O1896     Ni1903   1.907       .  S
O1897     Ni1903   1.908       .  S
O1898     Ni1903   1.912       .  S
O1899     Ni1904   1.900   1_545  S
O1899      C1908   1.280       .  A
O1900     Ni1904   1.905       .  S
O1900      C1907   1.275       .  A
O1901     Ni1904   1.906       .  S
O1901      C1906   1.278   1_565  A
O1902     Ni1904   1.903       .  S
O1902      C1905   1.280   1_565  A
C1905      C1945   1.479   1_545  S
C1909      C1910   1.400       .  A
C1909      C1914   1.400       .  A
C1909      H1916   1.085       .  S
C1911      C1912   1.400       .  A
C1911      C1918   1.514       .  S
C1912      H1917   1.085       .  S
C1913      C1914   1.411       .  A
C1914      C1915   1.511       .  S
C1915      F1919   1.384       .  S
C1915      F1921   1.383       .  S
C1918      F1922   1.383       .  S
C1918      F1924   1.385       .  S
C1925      C1930   1.399       .  A
C1925      H1932   1.081       .  S
C1926      C1927   1.407       .  A
C1927      C1928   1.399       .  A
C1927      C1934   1.506       .  S
C1928      C1929   1.400       .  A
C1928      H1933   1.085       .  S
C1930      C1931   1.517       .  S
C1931      F1935   1.382       .  S
C1931      F1936   1.385       .  S
C1931      F1937   1.383       .  S
C1934      F1938   1.383       .  S
C1934      F1939   1.383       .  S
C1934      F1940   1.384       .  S
C1941      C1946   1.408       .  A
C1941      H1948   1.083       .  S
C1942      C1943   1.418       .  A
C1943      C1944   1.399       .  A
C1943      C1950   1.522       .  S
C1944      C1945   1.404       .  A
C1944      H1949   1.083       .  S
C1946      C1947   1.520       .  S
C1947      F1951   1.385       .  S
C1947      F1952   1.384       .  S
C1947      F1953   1.382       .  S
C1950      F1954   1.384       .  S
C1950      F1955   1.383       .  S
C1950      F1956   1.385       .  S
C1957      C1962   1.407       .  A
C1957      H1964   1.083       .  S
C1958      C1959   1.411       .  A
C1959      C1960   1.397       .  A
C1959      C1966   1.518       .  S
C1960      C1961   1.408       .  A
C1960      H1965   1.084       .  S
C1962      C1963   1.521       .  S
C1963      F1967   1.384       .  S
C1963      F1968   1.383       .  S
C1963      F1969   1.384       .  S
C1966      F1970   1.382       .  S
C1966      F1971   1.382       .  S
C1966      F1972   1.385       .  S
C1973      C2274   1.397       .  A
C1973      C1978   1.409       .  A
C1973      H1980   1.083       .  S
C1974      C2273   1.402   1_545  A
C1975      C1976   1.405       .  A
C1975      C1982   1.521       .  S
C1976      H1981   1.083       .  S
C1977      C2278   1.427   1_545  A
C1978      C2277   1.428       .  A
C1978      C1979   1.519       .  S
C1979      F1983   1.385       .  S
C1979      F1984   1.383       .  S
C1979      F1985   1.384       .  S
C1982      F1986   1.382   1_556  S
C1982      F1987   1.383       .  S
C1982      F1988   1.385       .  S
C1989      C1990   1.412       .  A
C1989      C1994   1.408       .  A
C1989      H1996   1.083       .  S
C1991      C1992   1.407       .  A
C1991      C1998   1.524       .  S
C1992      H1997   1.083       .  S
C1993      C1994   1.411       .  A
C1994      C1995   1.518       .  S
C1995      F1999   1.385       .  S
C1995      F2000   1.383       .  S
C1995      F2301   1.383       .  S
C1998      F2002   1.383       .  S
C1998      F2303   1.384       .  S
C1998      F2304   1.385       .  S
F2001      C2295   1.383       .  S
F2003      C2298   1.381   1_554  S
F2004      C2298   1.386   1_554  S
C2005      C2006   1.403       .  A
C2005      C2010   1.411       .  A
C2005      H2012   1.083       .  S
C2007      C2008   1.404       .  A
C2007      C2014   1.522       .  S
C2008      H2013   1.082       .  S
C2009      C2010   1.429       .  A
C2010      C2011   1.522       .  S
C2011      F2015   1.384       .  S
C2011      F2016   1.385       .  S
C2011      F2017   1.383       .  S
C2014      F2018   1.383       .  S
C2014      F2019   1.382       .  S
C2014      F2020   1.380       .  S
C2021      C2026   1.413       .  A
C2021      H2028   1.082       .  S
C2022      C2023   1.426       .  A
C2023      C2024   1.409       .  A
C2023      C2030   1.524       .  S
C2024      H2029   1.082       .  S
C2025      C2026   1.420   1_455  A
C2026      C2027   1.518       .  S
C2027      F2031   1.384       .  S
C2027      F2032   1.382       .  S
C2027      F2033   1.384       .  S
C2030      F2034   1.383       .  S
C2030      F2035   1.383       .  S
C2030      F2036   1.385       .  S
C2037      C2038   1.396       .  A
C2037      C2042   1.401       .  A
C2037      H2044   1.085       .  S
C2039      C2040   1.402       .  A
C2039      C2046   1.511       .  S
C2040      H2045   1.085       .  S
C2041      C2042   1.418       .  A
C2042      C2043   1.510       .  S
C2043      F2047   1.381       .  S
C2043      F2048   1.383       .  S
C2043      F2049   1.381       .  S
C2046      F2050   1.382       .  S
C2046      F2051   1.384       .  S
C2046      F2052   1.380       .  S
C2053      C2058   1.402       .  A
C2053      H2060   1.085       .  S
C2054      C2055   1.411       .  A
C2055      C2056   1.401       .  A
C2055      C2062   1.512       .  S
C2056      C2057   1.400       .  A
C2056      H2061   1.084       .  S
C2058      C2059   1.513       .  S
C2059      F2063   1.383       .  S
C2059      F2064   1.382       .  S
C2059      F2065   1.384       .  S
C2062      F2066   1.383       .  S
C2062      F2067   1.384       .  S
C2062      F2068   1.383       .  S
C2069      C2074   1.406       .  A
C2069      H2076   1.083       .  S
C2070      C2071   1.422       .  A
C2071      C2072   1.410       .  A
C2071      C2078   1.520       .  S
C2072      C2073   1.401       .  A
C2072      H2077   1.083       .  S
C2074      C2075   1.514       .  S
C2075      F2079   1.384       .  S
C2075      F2380   1.384       .  S
C2075      F2081   1.384       .  S
C2078      F2082   1.383       .  S
C2078      F2083   1.383       .  S
C2078      F2084   1.385       .  S
F2080      C2375   1.384       .  S
C2085      C2386   1.397   1_655  A
C2085      C2090   1.410       .  A
C2085      H2092   1.083       .  S
C2086      C2385   1.399   1_455  A
C2087      C2088   1.408       .  A
C2087      C2094   1.520   1_554  S
C2088      H2093   1.082   1_554  S
C2089      C2390   1.428   1_455  A
C2090      C2389   1.430   1_655  A
C2090      C2091   1.520       .  S
C2091      F2095   1.384       .  S
C2091      F2096   1.381       .  S
C2091      F2397   1.384       .  S
C2094      F2098   1.380       .  S
C2094      F2099   1.383       .  S
C2094      F2100   1.385       .  S
F2097      C2391   1.383       .  S
O2102     Ni2109   1.918       .  S
O2103     Ni2109   1.910   1_455  S
O2103      C2113   1.281       .  A
O2104      C2114   1.277       .  A
O2105     Ni2110   1.909       .  S
O2107      C2112   1.281       .  A
O2108     Ni2110   1.926       .  S
O2108      C2111   1.282   1_556  A
C2111      C2370   1.482       .  S
O2115     Ni2123   1.921       .  S
O2115      C2125   1.279       .  A
O2116     Ni2123   1.912       .  S
O2116      C2126   1.283       .  A
O2117     Ni2123   1.913       .  S
O2117      C2127   1.278       .  A
O2118     Ni2123   1.919       .  S
O2118      C2128   1.280       .  A
O2119     Ni2124   1.903       .  S
O2120     Ni2124   1.919       .  S
O2121     Ni2124   1.919       .  S
O2122     Ni2124   1.898   1_455  S
C2125      C2357   1.465       .  S
C2126      C2341   1.463       .  S
C2127      C2322   1.487       .  S
C2128      C2309   1.501       .  S
O2129     Ni2135   1.908   1_545  S
O2130     Ni2153   1.918       .  S
O2131      H2154   0.973       .  S
C2132      O2149   1.283   1_455  A
C2132      C2386   1.478       .  S
O2133     Ni2152   1.914       .  S
O2134     Ni2152   1.932       .  S
O2134      C2136   1.268       .  A
Ni2135     O2138   1.916       .  S
Ni2135     O2140   1.933       .  S
O2137     Ni2153   1.928       .  S
O2137      C2143   1.280       .  A
C2139      C2274   1.464       .  S
O2140      C2142   1.269       .  A
O2141     Ni2152   1.916       .  S
C2143      C2373   1.483       .  S
H2144      O2145   0.962   1_556  S
O2146     Ni2147   2.018       .  S
Ni2147     O2151   1.915       .  S
Ni2147     O2149   1.931       .  S
O2148     Ni2153   2.023   1_545  S
C2150      C2293   1.471   1_556  S
O2155     Ni2161   1.921       .  S
O2156     Ni2179   1.916       .  S
O2156      C2165   1.277       .  A
O2157      H2180   0.966       .  S
O2157     Ni2161   1.887       .  S
C2158      O2175   1.281   1_455  A
C2158      C2325   1.491       .  S
O2159     Ni2178   1.922       .  S
O2160     Ni2178   1.936       .  S
O2160      C2162   1.270       .  A
Ni2161     O2164   1.916       .  S
Ni2161     O2166   1.945       .  S
O2163     Ni2179   1.932       .  S
O2163      C2169   1.284       .  A
C2165      C2242   1.491       .  S
O2166      C2168   1.273       .  A
O2167     Ni2178   1.924       .  S
C2169      C2306   1.490       .  S
H2170      O2171   0.967       .  S
O2171     Ni2178   1.898       .  S
O2172     Ni2173   2.016       .  S
Ni2173     O2177   1.911       .  S
Ni2173     O2175   1.935       .  S
O2174     Ni2179   2.018   1_545  S
C2176      O2177   1.275       .  A
C2176      C2258   1.472       .  S
O2181     Ni2189   1.910       .  S
O2182     Ni2189   1.913       .  S
O2182      C2192   1.281       .  A
O2183     Ni2189   1.919   1_556  S
O2183      C2193   1.278       .  A
O2184      C2194   1.282       .  A
O2185     Ni2190   1.918       .  S
O2187     Ni2190   1.914       .  S
O2188     Ni2190   1.912       .  S
C2192      C2290   1.493       .  S
C2193      C2213   1.459       .  S
C2194      C2226   1.461       .  S
O2195     Ni2203   1.901       .  S
O2196     Ni2203   1.900       .  S
O2197     Ni2203   1.916       .  S
O2198     Ni2203   1.920       .  S
O2199     Ni2204   1.907   1_545  S
O2199      C2208   1.281       .  A
O2200     Ni2204   1.917       .  S
O2200      C2207   1.277       .  A
O2201     Ni2204   1.928       .  S
O2201      C2206   1.282       .  A
O2202     Ni2204   1.923       .  S
O2202      C2205   1.285       .  A
C2205      C2245   1.498       .  S
C2209      C2210   1.402       .  A
C2209      C2214   1.405       .  A
C2209      H2216   1.084       .  S
C2211      C2212   1.403       .  A
C2211      C2218   1.515       .  S
C2212      H2217   1.084       .  S
C2213      C2214   1.413       .  A
C2214      C2215   1.516       .  S
C2215      F2219   1.385       .  S
C2215      F2221   1.382       .  S
C2218      F2222   1.382       .  S
C2218      F2224   1.384       .  S
C2225      C2230   1.402       .  A
C2225      H2232   1.085       .  S
C2226      C2227   1.410       .  A
C2227      C2228   1.398       .  A
C2227      C2234   1.510       .  S
C2228      C2229   1.399       .  A
C2228      H2233   1.085       .  S
C2230      C2231   1.511       .  S
C2231      F2235   1.383       .  S
C2231      F2236   1.384       .  S
C2231      F2237   1.384       .  S
C2234      F2238   1.384       .  S
C2234      F2239   1.383       .  S
C2234      F2240   1.384       .  S
C2241      C2246   1.406       .  A
C2241      H2248   1.083       .  S
C2242      C2243   1.421       .  A
C2243      C2244   1.405       .  A
C2243      C2250   1.521       .  S
C2244      C2245   1.406       .  A
C2244      H2249   1.082       .  S
C2246      C2247   1.522       .  S
C2247      F2251   1.385       .  S
C2247      F2252   1.383       .  S
C2247      F2253   1.384       .  S
C2250      F2254   1.384       .  S
C2250      F2255   1.383       .  S
C2250      F2256   1.384       .  S
C2257      C2262   1.411       .  A
C2257      H2264   1.083       .  S
C2258      C2259   1.411       .  A
C2259      C2260   1.398       .  A
C2259      C2266   1.520       .  S
C2260      C2261   1.410       .  A
C2260      H2265   1.084       .  S
C2262      C2263   1.517       .  S
C2263      F2267   1.386       .  S
C2263      F2268   1.382       .  S
C2263      F2269   1.383   1_565  S
C2266      F2270   1.382       .  S
C2266      F2271   1.382       .  S
C2266      F2272   1.384       .  S
C2273      C2278   1.410       .  A
C2273      H2280   1.083       .  S
C2275      C2276   1.399       .  A
C2275      C2282   1.526       .  S
C2276      H2281   1.081       .  S
C2278      C2279   1.520       .  S
C2279      F2283   1.384       .  S
C2279      F2284   1.383       .  S
C2279      F2285   1.384       .  S
C2282      F2286   1.383       .  S
C2282      F2287   1.384       .  S
C2282      F2288   1.385       .  S
C2289      C2290   1.414       .  A
C2289      C2294   1.409       .  A
C2289      H2296   1.082       .  S
C2291      C2292   1.406       .  A
C2291      C2298   1.523       .  S
C2292      H2297   1.084       .  S
C2293      C2294   1.410       .  A
C2294      C2295   1.519       .  S
C2295      F2299   1.384       .  S
C2295      F2300   1.384   1_554  S
C2298      F2302   1.381       .  S
C2305      C2306   1.404       .  A
C2305      C2310   1.411       .  A
C2305      H2312   1.083       .  S
C2307      C2308   1.398       .  A
C2307      C2314   1.525       .  S
C2308      H2313   1.081       .  S
C2309      C2310   1.427       .  A
C2310      C2311   1.520       .  S
C2311      F2315   1.383       .  S
C2311      F2316   1.385       .  S
C2311      F2317   1.384       .  S
C2314      F2318   1.383       .  S
C2314      F2319   1.384       .  S
C2314      F2320   1.385       .  S
C2321      C2326   1.413       .  A
C2321      H2328   1.082       .  S
C2322      C2323   1.422       .  A
C2323      C2324   1.408       .  A
C2323      C2330   1.518       .  S
C2324      H2329   1.084       .  S
C2325      C2326   1.417   1_455  A
C2326      C2327   1.516       .  S
C2327      F2331   1.385       .  S
C2327      F2332   1.382       .  S
C2327      F2333   1.381       .  S
C2330      F2334   1.384       .  S
C2330      F2335   1.382       .  S
C2330      F2336   1.383       .  S
C2337      C2338   1.398       .  A
C2337      C2342   1.399       .  A
C2337      H2344   1.081       .  S
C2339      C2340   1.402       .  A
C2339      C2346   1.508       .  S
C2340      H2345   1.084       .  S
C2341      C2342   1.412       .  A
C2342      C2343   1.511       .  S
C2343      F2347   1.382       .  S
C2343      F2348   1.383       .  S
C2343      F2349   1.381       .  S
C2346      F2350   1.384       .  S
C2346      F2351   1.384       .  S
C2346      F2352   1.382       .  S
C2353      C2358   1.401       .  A
C2353      H2360   1.085       .  S
C2354      C2355   1.412       .  A
C2355      C2356   1.405       .  A
C2355      C2362   1.517       .  S
C2356      C2357   1.405       .  A
C2356      H2361   1.084       .  S
C2358      C2359   1.513       .  S
C2359      F2363   1.383       .  S
C2359      F2364   1.383       .  S
C2359      F2365   1.382       .  S
C2362      F2366   1.384       .  S
C2362      F2367   1.382       .  S
C2362      F2368   1.385       .  S
C2369      C2374   1.408       .  A
C2369      H2376   1.083       .  S
C2370      C2371   1.416   1_554  A
C2371      C2372   1.408       .  A
C2371      C2378   1.515       .  S
C2372      C2373   1.403       .  A
C2372      H2377   1.083       .  S
C2374      C2375   1.518       .  S
C2375      F2379   1.384       .  S
C2375      F2381   1.383   1_655  S
C2378      F2382   1.383       .  S
C2378      F2383   1.382       .  S
C2378      F2384   1.385       .  S
C2385      C2390   1.410       .  A
C2385      H2392   1.083       .  S
C2387      C2388   1.400       .  A
C2387      C2394   1.523       .  S
C2388      H2393   1.081       .  S
C2390      C2391   1.518       .  S
C2391      F2395   1.382       .  S
C2391      F2396   1.382       .  S
C2394      F2398   1.384       .  S
C2394      F2399   1.384       .  S
C2394      F2400   1.382       .  S
