geometry optimzed in LAMMPS
_audit_creation_date              2020-11-30 
_audit_creation_method            'lammps2cif' 
_symmetry_space_group_name_H-M    'P1' 
_symmetry_Int_Tables_number       1 
_symmetry_cell_setting            triclinic 
loop_ 
_symmetry_equiv_pos_as_xyz 
  x,y,z 
_cell_length_a                    43.32190918 
_cell_length_b                    43.71595175288911 
_cell_length_c                    43.72599572571963 
_cell_angle_alpha                 90.05524323587807 
_cell_angle_beta                  90.02764513221818 
_cell_angle_gamma                 89.947199204976 
loop_ 
_atom_site_label 
_atom_site_type_symbol 
_atom_site_fract_x 
_atom_site_fract_y 
_atom_site_fract_z 
_atom_site_charge 
O1          O  0.00036657  0.05021005  0.08785933    -0.87600
O2          O  0.99797347  0.05046468  0.41337359    -0.87800
O3          O  0.04866974  0.09028460  0.00116435    -0.89500
O4          O  0.44912879  0.08571396  0.99878064    -0.88200
O5          O  0.41230925  0.04803117  0.99971580    -0.87800
O6          O  0.08689193  0.05381320  0.00225366    -0.89200
O7          O  0.99605808  0.08731333  0.45086101    -0.87600
O8          O  0.99985882  0.08795583  0.05147543    -0.87200
Zr9        Zr  0.99971969  0.06366242  0.00077015     2.84300
O10         O  0.46804041  0.03045442  0.46766303    -1.09200
O11         O  0.03201042  0.03367284  0.03135658    -1.09900
C12         C  0.99984588  0.07847581  0.07953873     1.05500
C13         C  0.99622608  0.07849740  0.42265173     1.05400
C14         C  0.07711061  0.08167289  0.00228950     1.08400
C15         C  0.42080891  0.07633597  0.99878789     1.06200
H16         H  0.04274190  0.04497101  0.45616309     0.31800
O17         O  0.02997527  0.03200935  0.46883044    -1.30200
H18         H  0.45671305  0.04356837  0.04366006     0.31400
O19         O  0.46981154  0.03122483  0.03077251    -1.31800
O20         O  0.99883544  0.45056069  0.41206411    -0.87600
O21         O  0.00159091  0.45169068  0.08772923    -0.89100
O22         O  0.08660567  0.00000388  0.44987916    -0.87700
O23         O  0.41258776  0.99812050  0.44789167    -0.87700
O24         O  0.41507112  0.99709060  0.04992687    -0.87500
O25         O  0.08867594  0.00355061  0.05025006    -0.87300
O26         O  0.05146990  0.41543997  0.99904910    -0.87600
O27         O  0.45254134  0.41273118  0.99973755    -0.87100
O28         O  0.08837960  0.45312658  0.99937899    -0.88200
O29         O  0.41410608  0.44890558  0.99879129    -0.87300
O30         O  0.04964640  0.99955267  0.41236024    -0.87700
O31         O  0.05090292  0.00451404  0.08698157    -0.87400
O32         O  0.45280240  0.99887305  0.08657279    -0.87100
O33         O  0.45050504  0.99952736  0.41118134    -0.87500
O34         O  0.00120108  0.41386432  0.44953598    -0.87800
O35         O  0.00324811  0.41472344  0.05082969    -0.89100
Zr36       Zr  0.99953660  0.00041383  0.43777334     2.83100
Zr37       Zr  0.00148940  0.00155833  0.06120444     2.83500
Zr38       Zr  0.06371971  0.00346004  0.00037792     2.84100
Zr39       Zr  0.43943778  0.99917151  0.00002605     2.83400
Zr40       Zr  0.00150524  0.43960599  0.00056181     2.84200
O41         O  0.47043740  0.46905203  0.02942251    -1.09700
O42         O  0.03095499  0.47051929  0.46831756    -1.09200
C43         C  0.00030199  0.42248037  0.42127519     1.05500
C44         C  0.00303540  0.42350605  0.07914827     1.08100
C45         C  0.07798696  0.99948231  0.42159885     1.05600
C46         C  0.42208218  0.99888998  0.41987589     1.06000
C47         C  0.42436956  0.99718628  0.07797942     1.05600
C48         C  0.07930494  0.00461162  0.07826860     1.05100
C49         C  0.07962254  0.42484322  0.99850920     1.05600
C50         C  0.42384284  0.42099773  0.99977095     1.05100
H51         H  0.04559471  0.45828415  0.04426282     0.31700
O52         O  0.03241043  0.47078774  0.03162564    -1.30800
H53         H  0.45701807  0.45663304  0.45405163     0.31800
O54         O  0.46946393  0.46941137  0.46715904    -1.32200
O55         O  0.00085373  0.19935816  0.16489818    -0.87600
O56         O  0.99825924  0.20073466  0.33866855    -0.87800
O57         O  0.04911689  0.16277759  0.25001394    -0.89500
O58         O  0.44840476  0.16501046  0.25263747    -0.88200
O59         O  0.41113879  0.20237479  0.25264839    -0.87800
O60         O  0.08626361  0.19992560  0.25131657    -0.89200
O61         O  0.00003411  0.16344761  0.30169341    -0.87600
O62         O  0.00009582  0.16236936  0.20211918    -0.87200
Zr63       Zr  0.99952043  0.18822645  0.25148228     2.84300
O64         O  0.46900117  0.22038764  0.28149981    -1.09200
O65         O  0.03079911  0.21886858  0.22042045    -1.09900
C66         C  0.00101188  0.17124242  0.17395823     1.05500
C67         C  0.99921349  0.17253466  0.32985102     1.05400
C68         C  0.07746626  0.17172237  0.25005664     1.08400
C69         C  0.42005104  0.17422957  0.25358844     1.06200
H70         H  0.04340835  0.20635444  0.29518784     0.31800
O71         O  0.03067356  0.21904233  0.28236789    -1.30200
H72         H  0.45440267  0.20675174  0.20706384     0.31400
O73         O  0.46754329  0.21953616  0.21948248    -1.31800
O74         O  0.99844259  0.29936539  0.33815575    -0.87600
O75         O  0.00018210  0.29859107  0.16337854    -0.89100
O76         O  0.08667183  0.24933264  0.30100841    -0.87700
O77         O  0.41324141  0.24937189  0.30146501    -0.87700
O78         O  0.41138455  0.25184619  0.20128782    -0.87500
O79         O  0.08758321  0.25032773  0.20168540    -0.87300
O80         O  0.04827426  0.33703436  0.25367691    -0.87600
O81         O  0.45022425  0.33780753  0.24929165    -0.87100
O82         O  0.08625847  0.30041783  0.25327307    -0.88200
O83         O  0.41255600  0.30098991  0.25255699    -0.87300
O84         O  0.04879546  0.25105671  0.33778145    -0.87700
O85         O  0.05004680  0.25041339  0.16445995    -0.87400
O86         O  0.44821944  0.25057300  0.16349831    -0.87100
O87         O  0.45114209  0.24953863  0.33815666    -0.87500
O88         O  0.99773154  0.33624135  0.30079208    -0.87800
O89         O  0.00129172  0.33581782  0.20003480    -0.89100
Zr90       Zr  0.99887555  0.25000205  0.31250612     2.83100
Zr91       Zr  0.99958188  0.24946139  0.18927555     2.83500
Zr92       Zr  0.06157644  0.25011348  0.25132649     2.84100
Zr93       Zr  0.43749106  0.25120726  0.25095062     2.83400
Zr94       Zr  0.99868733  0.31144935  0.25061373     2.84200
O95         O  0.46791726  0.28157511  0.21884281    -1.09700
O96         O  0.02999278  0.28100762  0.28182969    -1.09200
C97         C  0.99768162  0.32743478  0.32903409     1.05500
C98         C  0.00161118  0.32681068  0.17175374     1.08100
C99         C  0.07719216  0.24999941  0.32897398     1.05600
C100        C  0.42259387  0.24860054  0.32955177     1.06000
C101        C  0.41998599  0.25168012  0.17295339     1.05600
C102        C  0.07842405  0.25059350  0.17353296     1.05100
C103        C  0.07679018  0.32850203  0.25371725     1.05600
C104        C  0.42191716  0.32897712  0.25148613     1.05100
H105        H  0.04344867  0.29351576  0.20766492     0.31700
O106        O  0.03044761  0.28070348  0.22017984    -1.30800
H107        H  0.45658720  0.29511014  0.29421971     0.31800
O108        O  0.46909734  0.28228780  0.28125534    -1.32200
O109        O  0.33805564  0.50030397  0.19944841    -0.87600
O110        O  0.16319558  0.49855335  0.20020390    -0.87800
O111        O  0.25438639  0.44935682  0.16303245    -0.89500
O112        O  0.24903171  0.05082004  0.16322860    -0.88200
O113        O  0.24818984  0.08743836  0.20077215    -0.87800
O114        O  0.25326681  0.41225218  0.20017480    -0.89200
O115        O  0.20057352  0.49800224  0.16289645    -0.87600
O116        O  0.30025063  0.49877119  0.16299134    -0.87200
Zr117      Zr  0.25039259  0.49943935  0.18807126     2.84300
O118        O  0.21909620  0.03071521  0.21914354    -1.09200
O119        O  0.28158906  0.46874050  0.21895701    -1.09900
C120        C  0.32875588  0.49963740  0.17131366     1.05500
C121        C  0.17228963  0.49804156  0.17209381     1.05400
C122        C  0.25489804  0.42115952  0.17203810     1.08400
C123        C  0.24791803  0.07897195  0.17235288     1.06200
H124        H  0.20657190  0.45477733  0.20579886     0.31800
O125        O  0.21921591  0.46781599  0.21851110    -1.30200
H126        H  0.29404258  0.04514063  0.20644547     0.31400
O127        O  0.28143878  0.03192583  0.21897864    -1.31800
O128        O  0.16283898  0.49679409  0.29987774    -0.87600
O129        O  0.33795527  0.50046185  0.29898066    -0.89100
O130        O  0.20039889  0.41214802  0.25098259    -0.87700
O131        O  0.19914374  0.08581088  0.25252519    -0.87700
O132        O  0.29880871  0.08769104  0.25199786    -0.87500
O133        O  0.30060065  0.41290277  0.25064172    -0.87300
O134        O  0.24892869  0.44920698  0.33643409    -0.87600
O135        O  0.25127825  0.04784038  0.33797370    -0.87100
O136        O  0.24978514  0.41196216  0.29937718    -0.88200
O137        O  0.25161843  0.08565858  0.30157682    -0.87300
O138        O  0.16293028  0.44924235  0.25179017    -0.87700
O139        O  0.33778862  0.45033691  0.24840793    -0.87400
O140        O  0.33709271  0.05132904  0.25133887    -0.87100
O141        O  0.16225764  0.04838116  0.25053540    -0.87500
O142        O  0.20028345  0.49851689  0.33699422    -0.87800
O143        O  0.30014422  0.50153048  0.33559298    -0.89100
Zr144      Zr  0.18826824  0.49856627  0.24997626     2.83100
Zr145      Zr  0.31251234  0.50018278  0.24937984     2.83500
Zr146      Zr  0.25060755  0.43759304  0.24982837     2.84100
Zr147      Zr  0.24957895  0.06158786  0.25073877     2.83400
Zr148      Zr  0.25005253  0.49937299  0.31146546     2.84200
O149        O  0.28131739  0.03046806  0.28077004    -1.09700
O150        O  0.21932768  0.46795536  0.28089707    -1.09200
C151        C  0.17193192  0.49697843  0.32805331     1.05500
C152        C  0.32855418  0.50100365  0.32702069     1.08100
C153        C  0.17199335  0.42114433  0.25234826     1.05600
C154        C  0.17082496  0.07661075  0.25216615     1.06000
C155        C  0.32735725  0.07936684  0.25181864     1.05600
C156        C  0.32879680  0.42217533  0.24939384     1.05100
C157        C  0.24864981  0.42096718  0.32752189     1.05600
C158        C  0.25212961  0.07617982  0.32965193     1.05100
H159        H  0.29471108  0.45618491  0.29344914     0.31700
O160        O  0.28176326  0.46881615  0.28060939    -1.30800
H161        H  0.20558252  0.04239143  0.29447797     0.31800
O162        O  0.21855567  0.03016293  0.28132583    -1.32200
O163        O  0.19894761  0.16346659  0.49964490    -0.87600
O164        O  0.19993553  0.33811688  0.49745017    -0.87800
O165        O  0.16056228  0.25101558  0.04924514    -0.89500
O166        O  0.16096097  0.25249840  0.45020550    -0.88200
O167        O  0.19861312  0.24958813  0.41326718    -0.87800
O168        O  0.19813975  0.24956174  0.08630158    -0.89200
O169        O  0.16202813  0.30144761  0.49827938    -0.87600
O170        O  0.16141509  0.20053302  0.49883495    -0.87200
Zr171      Zr  0.18620505  0.25078201  0.49960036     2.84300
O172        O  0.21800330  0.28089283  0.46876629    -1.09200
O173        O  0.21765529  0.21964991  0.03003977    -1.09900
C174        C  0.17057470  0.17235702  0.49867591     1.05500
C175        C  0.17153103  0.32950946  0.49765846     1.05400
C176        C  0.16971104  0.24990792  0.07739394     1.08400
C177        C  0.17024644  0.25146472  0.42222210     1.06200
H178        H  0.20505170  0.29528575  0.04318747     0.31800
O179        O  0.21791641  0.28236809  0.03050053    -1.30200
H180        H  0.20439277  0.20617766  0.45606661     0.31400
O181        O  0.21727836  0.21922560  0.46903100    -1.31800
O182        O  0.29897590  0.33744900  0.49948947    -0.87600
O183        O  0.29845969  0.16377216  0.49938939    -0.89100
O184        O  0.24992960  0.30036450  0.08586131    -0.87700
O185        O  0.24789456  0.29916292  0.41282031    -0.87700
O186        O  0.25025722  0.19834222  0.41425891    -0.87500
O187        O  0.24819379  0.20029616  0.08579404    -0.87300
O188        O  0.33553461  0.25091903  0.05087526    -0.87600
O189        O  0.33640035  0.25033758  0.45125566    -0.87100
O190        O  0.29763086  0.24945409  0.08756165    -0.88200
O191        O  0.29945646  0.24981188  0.41355630    -0.87300
O192        O  0.25103680  0.33780518  0.04906588    -0.87700
O193        O  0.24821005  0.16350846  0.04847448    -0.87400
O194        O  0.24967312  0.16197416  0.45204410    -0.87100
O195        O  0.24807835  0.33671941  0.44963029    -0.87500
O196        O  0.33637403  0.30023126  0.50063549    -0.87800
O197        O  0.33624617  0.20056459  0.49976089    -0.89100
Zr198      Zr  0.24895963  0.31193313  0.49975813     2.83100
Zr199      Zr  0.24849489  0.18905525  0.50057182     2.83500
Zr200      Zr  0.24843544  0.25042978  0.06109344     2.84100
Zr201      Zr  0.24900823  0.24939733  0.43821454     2.83400
Zr202      Zr  0.31084490  0.25046969  0.50095141     2.84200
O203        O  0.28013429  0.21928595  0.46979978    -1.09700
O204        O  0.28023532  0.28122688  0.03060869    -1.09200
C205        C  0.32737543  0.32840560  0.49951035     1.05500
C206        C  0.32690641  0.17247036  0.49934129     1.08100
C207        C  0.25064779  0.32859863  0.07718623     1.05600
C208        C  0.24804061  0.32744818  0.42152624     1.06000
C209        C  0.25003926  0.17023100  0.42373061     1.05600
C210        C  0.24846291  0.17211528  0.07671269     1.05100
C211        C  0.32609907  0.24994305  0.07895190     1.05600
C212        C  0.32775377  0.25031851  0.42295936     1.05100
H213        H  0.29261932  0.20652831  0.04338978     0.31700
O214        O  0.27999763  0.21935104  0.03058870    -1.30800
H215        H  0.29288568  0.29345458  0.45638778     0.31800
O216        O  0.28005340  0.28079985  0.46909911    -1.32200
C217        C  0.24694827  0.10312539  0.14802527    -0.07300
C218        C  0.25917655  0.09631369  0.11903049    -0.18400
C219        C  0.26089376  0.11821437  0.09574102     0.09900
C220        C  0.24882387  0.14795087  0.10069768    -0.07200
C221        C  0.23586945  0.15464319  0.12936675    -0.18400
C222        C  0.23453183  0.13274100  0.15267432     0.10000
S223        S  0.27999348  0.10673160  0.06090309    -0.33400
S224        S  0.21426639  0.14356265  0.18669447    -0.33400
H225        H  0.19712577  0.11621397  0.18753730     0.28000
H226        H  0.29769963  0.13362726  0.05875463     0.28000
H227        H  0.26794639  0.07372825  0.11443586     0.18600
H228        H  0.22572693  0.17694739  0.13346650     0.18600
C229        C  0.25602288  0.39693222  0.14828067    -0.07300
C230        C  0.23602182  0.37189024  0.15137065    -0.18400
C231        C  0.23339522  0.34969368  0.12845756     0.09900
C232        C  0.25136994  0.35219679  0.10154414    -0.07200
C233        C  0.27190917  0.37690167  0.09869126    -0.18400
C234        C  0.27507219  0.39871841  0.12204656     0.10800
S235        S  0.20562344  0.31956972  0.13459841    -0.33400
S236        S  0.30542476  0.42665627  0.11796649    -0.33400
H237        H  0.31085649  0.43035885  0.14941982     0.28000
H238        H  0.19579614  0.31807582  0.10396850     0.28000
H239        H  0.22142096  0.37013248  0.17141805     0.18600
H240        H  0.28657719  0.37849974  0.07867763     0.18600
C241        C  0.24853169  0.35117154  0.39734052    -0.07300
C242        C  0.22808160  0.37602981  0.39946518    -0.18400
C243        C  0.22698491  0.39865104  0.37676361     0.09900
C244        C  0.24725411  0.39690728  0.35140703    -0.07200
C245        C  0.26744986  0.37185373  0.34915748    -0.18400
C246        C  0.26867034  0.34935054  0.37193261     0.10000
S247        S  0.19836920  0.42835862  0.38108998    -0.33400
S248        S  0.29761714  0.31987464  0.36789308    -0.33400
H249        H  0.30374924  0.31666683  0.39928871     0.28000
H250        H  0.19331929  0.43263102  0.34969408     0.28000
H251        H  0.21229047  0.37746464  0.41863128     0.18600
H252        H  0.28327353  0.37037487  0.33001425     0.18600
C253        C  0.25328305  0.09955922  0.35437893    -0.07300
C254        C  0.23394114  0.09614789  0.37993973    -0.18400
C255        C  0.23232339  0.11864759  0.40280675     0.09900
C256        C  0.25048466  0.14552777  0.40029500    -0.07200
C257        C  0.27054428  0.14840494  0.37522014    -0.18400
C258        C  0.27272555  0.12547614  0.35284382     0.10000
S259        S  0.20561321  0.11206484  0.43377961    -0.33400
S260        S  0.30241738  0.12944736  0.32425255    -0.33400
H261        H  0.30984056  0.09809142  0.32337460     0.28000
H262        H  0.19547168  0.14258292  0.43564005     0.28000
H263        H  0.21921798  0.07618429  0.38167484     0.18600
H264        H  0.28550795  0.16819860  0.37362092     0.18600
C265        C  0.39571998  0.15066911  0.25525193    -0.07300
C266        C  0.36902343  0.15453793  0.23748431    -0.18400
C267        C  0.34675630  0.13151075  0.23543969     0.09900
C268        C  0.35065604  0.10407803  0.25225576    -0.07200
C269        C  0.37684895  0.10070590  0.27087409    -0.18400
C270        C  0.39909881  0.12380906  0.27291881     0.10000
S271        S  0.31513454  0.13785991  0.20928464    -0.33400
S272        S  0.43042625  0.11824116  0.29957180    -0.33400
H273        H  0.43236439  0.14912571  0.30847991     0.28000
H274        H  0.31455067  0.10765284  0.19814682     0.28000
H275        H  0.36616064  0.17508037  0.22389418     0.18600
H276        H  0.37961562  0.08023358  0.28457234     0.18600
C277        C  0.39836919  0.35298375  0.25229850    -0.07300
C278        C  0.39942926  0.37554020  0.22959658    -0.18400
C279        C  0.37650741  0.39780486  0.22758157     0.09900
C280        C  0.35265840  0.39842277  0.24947928    -0.07200
C281        C  0.35162826  0.37596232  0.27232238    -0.18400
C282        C  0.37431916  0.35333257  0.27413655     0.10000
S283        S  0.37777362  0.42318902  0.19527720    -0.33400
S284        S  0.37155515  0.32640706  0.30533609    -0.33400
H285        H  0.40323911  0.32023488  0.30796555     0.28000
H286        H  0.34561748  0.42566409  0.19191727     0.28000
H287        H  0.41753514  0.37500015  0.21248240     0.18600
H288        H  0.33335017  0.37644430  0.28925072     0.18600
C289        C  0.10151333  0.14751658  0.24931334    -0.07300
C290        C  0.09370362  0.11795757  0.25942918    -0.18400
C291        C  0.11588478  0.09490905  0.26234886     0.09900
C292        C  0.14656088  0.10058622  0.25293301    -0.07200
C293        C  0.15428449  0.13006958  0.24286474    -0.18400
C294        C  0.13230482  0.15320879  0.24023502     0.10000
S295        S  0.10403914  0.06009087  0.28106907    -0.33400
S296        S  0.14515628  0.18865051  0.22345540    -0.33400
H297        H  0.11889047  0.19181559  0.20485299     0.28000
H298        H  0.13071541  0.05819338  0.29940864     0.28000
H299        H  0.07026198  0.11290454  0.26621322     0.18600
H300        H  0.17775046  0.13521748  0.23660082     0.18600
C301        C  0.10053918  0.35284870  0.25396900    -0.07300
C302        C  0.12763885  0.34842094  0.27106916    -0.18400
C303        C  0.15077235  0.37076519  0.27203083     0.09900
C304        C  0.14758542  0.39764856  0.25435592    -0.07200
C305        C  0.12013103  0.40248545  0.23808508    -0.18400
C306        C  0.09673049  0.38058674  0.23770640     0.10000
S307        S  0.18261153  0.36457667  0.29785997    -0.33400
S308        S  0.06338690  0.38904858  0.21469484    -0.33400
H309        H  0.06279439  0.36009428  0.20063275     0.28000
H310        H  0.18490394  0.39538347  0.30683756     0.28000
H311        H  0.13041586  0.32779943  0.28453953     0.18600
H312        H  0.11719408  0.42318812  0.22475595     0.18600
C313        C  0.39551025  0.25250635  0.14938532    -0.07300
C314        C  0.37079876  0.23188126  0.15171126    -0.18400
C315        C  0.34828348  0.22994198  0.12877517     0.09900
C316        C  0.34985639  0.24973303  0.10321454    -0.07200
C317        C  0.37430501  0.27062954  0.10114148    -0.18400
C318        C  0.39691928  0.27241371  0.12392801     0.10000
S319        S  0.31936646  0.20049033  0.13260056    -0.33400
S320        S  0.42617535  0.30142759  0.11958766    -0.33400
H321        H  0.43033778  0.30695690  0.15100514     0.28000
H322        H  0.31785924  0.19353676  0.10120624     0.28000
H323        H  0.36971130  0.21628918  0.17094817     0.18600
H324        H  0.37540015  0.28624505  0.08192321     0.18600
C325        C  0.10229008  0.25108044  0.14957996    -0.07300
C326        C  0.11600024  0.22337588  0.14082253    -0.18400
C327        C  0.13752479  0.22208752  0.11692907     0.09900
C328        C  0.14596088  0.24932459  0.10161352    -0.07200
C329        C  0.13213695  0.27701561  0.11041175    -0.18400
C330        C  0.11022530  0.27817172  0.13393608     0.10000
S331        S  0.15159735  0.18468812  0.10614595    -0.33400
S332        S  0.09293915  0.31476332  0.14254680    -0.33400
H333        H  0.08867279  0.30941074  0.17393278     0.28000
H334        H  0.17924387  0.19384984  0.09228831     0.28000
H335        H  0.10930193  0.20240748  0.15218304     0.18600
H336        H  0.13881839  0.29804147  0.09927454     0.18600
C337        C  0.14635236  0.25168417  0.39848698    -0.07300
C338        C  0.14616401  0.22788489  0.37702649    -0.18400
C339        C  0.12343311  0.22632116  0.35447431     0.09900
C340        C  0.10073268  0.24948191  0.35298505    -0.07200
C341        C  0.10078578  0.27322327  0.37455962    -0.18400
C342        C  0.12351455  0.27467712  0.39728154     0.10000
S343        S  0.12423462  0.19372288  0.32908749    -0.33400
S344        S  0.12418632  0.30670004  0.42348190    -0.33400
H345        H  0.09923340  0.32272258  0.41055667     0.28000
H346        H  0.09240265  0.19293952  0.32331920     0.28000
H347        H  0.16344946  0.20997906  0.37833195     0.18600
H348        H  0.08335304  0.29094613  0.37310725     0.18600
C349        C  0.35221099  0.25043369  0.39933630    -0.07300
C350        C  0.34835459  0.23199817  0.37332642    -0.18400
C351        C  0.37120772  0.23009840  0.35078842     0.09900
C352        C  0.39869854  0.24735904  0.35386507    -0.07200
C353        C  0.40273318  0.26542197  0.38016885    -0.18400
C354        C  0.37963803  0.26769323  0.40246688     0.10000
S355        S  0.36425761  0.20421197  0.31941945    -0.33400
S356        S  0.38557023  0.29484687  0.43300402    -0.33400
H357        H  0.35481173  0.30520891  0.43335334     0.28000
H358        H  0.39499936  0.19402298  0.31762421     0.28000
H359        H  0.32762660  0.21833541  0.37085845     0.18600
H360        H  0.42342221  0.27912463  0.38265774     0.18600
C361        C  0.39992681  0.39678862  0.00031534    -0.07300
C362        C  0.37357075  0.39916747  0.47766961    -0.18400
C363        C  0.35038403  0.37681864  0.47713710     0.09900
C364        C  0.35337688  0.35136183  0.99823281    -0.07200
C365        C  0.37928677  0.34787358  0.01727254    -0.18400
C366        C  0.40227018  0.37037011  0.01885188     0.10000
S367        S  0.32070011  0.38051082  0.44836112    -0.33400
S368        S  0.43288295  0.36470225  0.04626549    -0.33400
H369        H  0.43574615  0.39573274  0.05434573     0.28000
H370        H  0.31659830  0.34897532  0.44372817     0.28000
H371        H  0.37245680  0.41793488  0.46151451     0.18600
H372        H  0.38112842  0.32792528  0.03187097     0.18600
C373        C  0.39647078  0.10028193  0.99860371    -0.07300
C374        C  0.40269420  0.12802350  0.01360612    -0.18400
C375        C  0.38071327  0.15139133  0.01533636     0.09900
C376        C  0.35154546  0.14754402  0.00120541    -0.07200
C377        C  0.34637617  0.12308109  0.47899067    -0.18400
C378        C  0.36810383  0.09936053  0.47742825     0.10000
S379        S  0.39101965  0.18467887  0.03744616    -0.33400
S380        S  0.36069151  0.06874648  0.45073187    -0.33400
H381        H  0.39165551  0.06517130  0.44178716     0.28000
H382        H  0.36242677  0.18628499  0.05263810     0.28000
H383        H  0.42471896  0.13130609  0.02491133     0.18600
H384        H  0.32626337  0.12225167  0.46424727     0.18600
C385        C  0.10341318  0.40082948  0.99721019    -0.07300
C386        C  0.09885658  0.37440090  0.01479265    -0.18400
C387        C  0.12058056  0.35087804  0.01516155     0.09900
C388        C  0.14779899  0.35358091  0.99751443    -0.07200
C389        C  0.15212323  0.37912012  0.47802039    -0.18400
C390        C  0.13048130  0.40290039  0.47712246     0.10000
S391        S  0.11256176  0.31875459  0.03968465    -0.33400
S392        S  0.13662727  0.43301645  0.44962028    -0.33400
H393        H  0.10527159  0.43654663  0.44206197     0.28000
H394        H  0.14321890  0.31593147  0.04982154     0.28000
H395        H  0.07842746  0.37230988  0.02896037     0.18600
H396        H  0.17176349  0.37981009  0.46269165     0.18600
C397        C  0.10054279  0.10562784  0.00334675    -0.07300
C398        C  0.09605730  0.12912190  0.48374298    -0.18400
C399        C  0.11901097  0.15143031  0.48114286     0.09900
C400        C  0.14705737  0.14998770  0.00086260    -0.07200
C401        C  0.14875625  0.12620304  0.02229555    -0.18400
C402        C  0.12548685  0.10427269  0.02404649     0.10000
S403        S  0.11244583  0.18207739  0.45430500    -0.33400
S404        S  0.12786189  0.07617959  0.05415264    -0.33400
H405        H  0.09596975  0.07630168  0.06020745     0.28000
H406        H  0.14320929  0.18328922  0.44399266     0.28000
H407        H  0.07482666  0.13189613  0.47090885     0.18600
H408        H  0.16777608  0.12530067  0.03839994     0.18600
C409        C  0.35282201  0.99634782  0.35019805    -0.07300
C410        C  0.37740187  0.01696644  0.34775117    -0.18400
C411        C  0.40012475  0.01850631  0.37023292     0.09900
C412        C  0.39846742  0.99874210  0.39575847    -0.07200
C413        C  0.36954599  0.49125004  0.40311745    -0.18400
C414        C  0.34656654  0.48943784  0.38092634     0.10000
S415        S  0.42965585  0.04717264  0.36555053    -0.33400
S416        S  0.31135574  0.47032182  0.39189539    -0.33400
H417        H  0.31021137  0.45209441  0.36536991     0.28000
H418        H  0.43058744  0.05536940  0.39663767     0.28000
H419        H  0.37837175  0.03272272  0.32863161     0.18600
H420        H  0.36519221  0.48118300  0.42534608     0.18600
C421        C  0.10245150  0.99818210  0.39787984    -0.07300
C422        C  0.09905008  0.47888826  0.37305868    -0.18400
C423        C  0.12225366  0.47637515  0.35086679     0.09900
C424        C  0.14811669  0.99379187  0.35168340    -0.07200
C425        C  0.15316826  0.01139886  0.37807751    -0.18400
C426        C  0.13083667  0.01389475  0.40098315     0.10000
S427        S  0.11831513  0.44630588  0.32278939    -0.33400
S428        S  0.13972227  0.03875383  0.43273868    -0.33400
H429        H  0.11010097  0.05188633  0.43423698     0.28000
H430        H  0.15000825  0.44159381  0.31804577     0.28000
H431        H  0.07929355  0.46373376  0.37185827     0.18600
H432        H  0.17435885  0.02436186  0.38043564     0.18600
C433        C  0.10307970  0.00467563  0.10226657    -0.07300
C434        C  0.12586044  0.47930109  0.10124726    -0.18400
C435        C  0.14826479  0.47678913  0.12413497     0.09900
C436        C  0.14832239  0.00005773  0.14821074    -0.07200
C437        C  0.12330564  0.02016464  0.15166109    -0.18400
C438        C  0.10065779  0.02268529  0.12906618     0.10000
S439        S  0.17545243  0.44552103  0.12145305    -0.33400
S440        S  0.06995498  0.04985205  0.13562329    -0.33400
H441        H  0.06751443  0.05922698  0.10499434     0.28000
H442        H  0.17931768  0.44140505  0.15312147     0.28000
H443        H  0.12555856  0.46268089  0.08283134     0.18600
H444        H  0.12177014  0.03455292  0.17181772     0.18600
C445        C  0.35379677  0.00213041  0.14725487    -0.07300
C446        C  0.38258395  0.48956963  0.15407353    -0.18400
C447        C  0.40513178  0.48562061  0.13158778     0.09900
C448        C  0.40026093  0.99662347  0.10194170    -0.07200
C449        C  0.37106550  0.00845383  0.09467895    -0.18400
C450        C  0.34804360  0.01136659  0.11674687     0.10000
S451        S  0.44058290  0.46776907  0.14350024    -0.33400
S452        S  0.31313329  0.02992812  0.10477445    -0.33400
H453        H  0.31347487  0.04983285  0.13011024     0.28000
H454        H  0.44292610  0.44912715  0.11731523     0.28000
H455        H  0.38843952  0.48413217  0.17749680     0.18600
H456        H  0.36634689  0.01667305  0.07176651     0.18600
C457        C  0.99914088  0.14873703  0.35392735    -0.07300
C458        C  0.48130794  0.15254019  0.37729524    -0.18400
C459        C  0.47836047  0.12946097  0.39933255     0.09900
C460        C  0.99546179  0.10243509  0.39889154    -0.07200
C461        C  0.01701359  0.10044626  0.37510964    -0.18400
C462        C  0.01964281  0.12359074  0.35329081     0.10000
S463        S  0.45040398  0.13552464  0.42931717    -0.33400
S464        S  0.05144576  0.12084392  0.32706063    -0.33400
H465        H  0.05641481  0.15248396  0.32489134     0.28000
H466        H  0.44150998  0.10468355  0.43162599     0.28000
H467        H  0.46689888  0.17275224  0.37905118     0.18600
H468        H  0.03307147  0.08141268  0.37441858     0.18600
C469        C  0.99704369  0.35141026  0.35291124    -0.07300
C470        C  0.01665879  0.34840705  0.37829896    -0.18400
C471        C  0.01889198  0.37154404  0.40034239     0.09900
C472        C  0.00043190  0.39815302  0.39762766    -0.07200
C473        C  0.48355171  0.40278461  0.37144579    -0.18400
C474        C  0.48175879  0.38002091  0.34895432     0.10000
S475        S  0.04704803  0.36641007  0.43033839    -0.33400
S476        S  0.45217147  0.38435611  0.32022070    -0.33400
H477        H  0.44595272  0.35298577  0.31736257     0.28000
H478        H  0.05623676  0.39726701  0.43122027     0.28000
H479        H  0.03128980  0.32838193  0.38037973     0.18600
H480        H  0.46735424  0.42169392  0.37074482     0.18600
C481        C  0.00435799  0.39924208  0.10337917    -0.07300
C482        C  0.00288482  0.36840485  0.09430129    -0.18400
C483        C  0.00399670  0.34438743  0.11542109     0.09900
C484        C  0.00376597  0.35084049  0.14732686    -0.07200
C485        C  0.50480859  0.38215164  0.15411695    -0.18400
C486        C  0.50781140  0.40571471  0.13253224     0.10000
S487        S  0.00689355  0.30653596  0.09919338    -0.33400
S488        S  0.51670332  0.44374862  0.14650864    -0.33400
H489        H  0.51611955  0.43725976  0.17798528     0.28000
H490        H  0.03261620  0.29816934  0.11687866     0.28000
H491        H  0.00183703  0.36264577  0.07023005     0.18600
H492        H  0.50430412  0.38807650  0.17810194     0.18600
C493        C  0.99978685  0.10180382  0.10414480    -0.07300
C494        C  0.51811203  0.12849684  0.09869574    -0.18400
C495        C  0.51940798  0.15124657  0.12131913     0.09900
C496        C  0.00175734  0.14725964  0.15010732    -0.07200
C497        C  0.98256584  0.12162237  0.15333141    -0.18400
C498        C  0.98140906  0.09882135  0.13074563     0.10000
S499        S  0.54548702  0.18309155  0.11619287    -0.33400
S500        S  0.95501436  0.06712811  0.13546099    -0.33400
H501        H  0.94680272  0.07330752  0.16598060     0.28000
H502        H  0.55250635  0.17755292  0.08526621     0.28000
H503        H  0.53239503  0.13050283  0.07847841     0.18600
H504        H  0.96785785  0.11990110  0.17327790     0.18600
O505        O  0.99650935  0.04893706  0.58759457    -0.87600
O506        O  0.00251702  0.05317334  0.91378476    -0.87800
O507        O  0.04818859  0.08770957  0.50123100    -0.89500
O508        O  0.44709694  0.08576858  0.49720874    -0.88200
O509        O  0.40998708  0.04825870  0.49641490    -0.87800
O510        O  0.08568668  0.05063351  0.49978333    -0.89200
O511        O  0.99917207  0.08972644  0.95144067    -0.87600
O512        O  0.99744207  0.08658362  0.55115262    -0.87200
Zr513      Zr  0.99822450  0.06204882  0.50047791     2.84300
O514        O  0.46961478  0.03109778  0.96923337    -1.09200
O515        O  0.02984019  0.03135566  0.53092384    -1.09900
C516        C  0.99658283  0.07728021  0.57928708     1.05500
C517        C  0.00059575  0.08119157  0.92316798     1.05400
C518        C  0.07663318  0.07873118  0.50091852     1.08400
C519        C  0.41877650  0.07651507  0.49624932     1.06200
H520        H  0.04482093  0.04743183  0.95726182     0.31800
O521        O  0.03214746  0.03415735  0.96967831    -1.30200
H522        H  0.45373723  0.04361943  0.54181276     0.31400
O523        O  0.46704114  0.03118598  0.52920486    -1.31800
O524        O  0.00212036  0.45219376  0.91347967    -0.87600
O525        O  0.00028895  0.45087804  0.58585303    -0.89100
O526        O  0.09011816  0.00552663  0.95150820    -0.87700
O527        O  0.41296674  0.99936666  0.95082778    -0.87700
O528        O  0.41183830  0.99814123  0.54822561    -0.87500
O529        O  0.08631141  0.00163346  0.54928501    -0.87300
O530        O  0.05230665  0.41596284  0.49818302    -0.87600
O531        O  0.45119752  0.41281849  0.49834735    -0.87100
O532        O  0.08899251  0.45382973  0.49745086    -0.88200
O533        O  0.41308554  0.44929441  0.49623142    -0.87300
O534        O  0.05265920  0.00400929  0.91437215    -0.87700
O535        O  0.04858451  0.00164039  0.58610412    -0.87400
O536        O  0.44919531  0.99849460  0.58535516    -0.87100
O537        O  0.45037206  0.00083923  0.91377238    -0.87500
O538        O  0.00197875  0.41481395  0.95029821    -0.87800
O539        O  0.00196730  0.41361732  0.54925651    -0.89100
Zr540      Zr  0.00205775  0.00279158  0.93825921     2.83100
Zr541      Zr  0.99851413  0.99995026  0.56084639     2.83500
Zr542      Zr  0.06098545  0.00080348  0.49953985     2.84100
Zr543      Zr  0.43693797  0.99920507  0.49824917     2.83400
Zr544      Zr  0.00116611  0.43885192  0.49949933     2.84200
O545        O  0.46929116  0.46911740  0.52960050    -1.09700
O546        O  0.03231318  0.47131971  0.97004266    -1.09200
C547        C  0.00243537  0.42390899  0.92213627     1.05500
C548        C  0.00147846  0.42262066  0.57744585     1.08100
C549        C  0.08100129  0.00510481  0.92342855     1.05600
C550        C  0.42198844  0.00058002  0.92268174     1.06000
C551        C  0.42081960  0.99755011  0.57643374     1.05600
C552        C  0.07704571  0.00231930  0.57736743     1.05100
C553        C  0.08047177  0.42555554  0.49722918     1.05600
C554        C  0.42258198  0.42129329  0.49742258     1.05100
H555        H  0.04526253  0.45796368  0.54307936     0.31700
O556        O  0.03189779  0.47027303  0.53042662    -1.30800
H557        H  0.45767582  0.45621193  0.95441447     0.31800
O558        O  0.47015560  0.46917171  0.96730912    -1.32200
O559        O  0.99868628  0.19959611  0.66404964    -0.87600
O560        O  0.99917157  0.20338873  0.83842781    -0.87800
O561        O  0.04818538  0.16289302  0.74939748    -0.89500
O562        O  0.45037664  0.16209349  0.75300388    -0.88200
O563        O  0.41316840  0.19952612  0.75286976    -0.87800
O564        O  0.08574504  0.19962626  0.75004689    -0.89200
O565        O  0.00143476  0.16538784  0.80209764    -0.87600
O566        O  0.99890918  0.16293863  0.70159170    -0.87200
Zr567      Zr  0.99883143  0.18881970  0.75135015     2.84300
O568        O  0.46985987  0.21886895  0.78100583    -1.09200
O569        O  0.02991633  0.21881550  0.71954439    -1.09900
C570        C  0.99919514  0.17153662  0.67325849     1.05500
C571        C  0.00077802  0.17506661  0.83006260     1.05400
C572        C  0.07663800  0.17151738  0.74915998     1.08400
C573        C  0.42205833  0.17133333  0.75383153     1.06200
H574        H  0.04337003  0.20766070  0.79440576     0.31800
O575        O  0.03037888  0.22018100  0.78151236    -1.30200
H576        H  0.45462896  0.20556820  0.70662087     0.31400
O577        O  0.46787181  0.21828501  0.71900421    -1.31800
O578        O  0.99994266  0.30312313  0.83566523    -0.87600
O579        O  0.99958610  0.29849489  0.66248250    -0.89100
O580        O  0.08668642  0.25077909  0.79946221    -0.87700
O581        O  0.41363966  0.24794136  0.80109648    -0.87700
O582        O  0.41083800  0.24925785  0.70176628    -0.87500
O583        O  0.08599868  0.24981532  0.69935262    -0.87300
O584        O  0.05080953  0.33636979  0.74958784    -0.87600
O585        O  0.44984920  0.33674497  0.74884123    -0.87100
O586        O  0.08801580  0.29889910  0.74998753    -0.88200
O587        O  0.41270372  0.29931795  0.75062203    -0.87300
O588        O  0.04947807  0.25274235  0.83675647    -0.87700
O589        O  0.04798924  0.24986370  0.66259833    -0.87400
O590        O  0.44746268  0.25221061  0.66389046    -0.87100
O591        O  0.45174187  0.24910562  0.83760698    -0.87500
O592        O  0.00037457  0.33964465  0.79804849    -0.87800
O593        O  0.00143835  0.33620661  0.69856620    -0.89100
Zr594      Zr  0.99965232  0.25239760  0.81174941     2.83100
Zr595      Zr  0.99855201  0.24956704  0.68867568     2.83500
Zr596      Zr  0.06146436  0.24995459  0.74970498     2.84100
Zr597      Zr  0.43786249  0.24945128  0.75080093     2.83400
Zr598      Zr  0.00006379  0.31248269  0.74911006     2.84200
O599        O  0.46791000  0.28051961  0.71913157    -1.09700
O600        O  0.03125685  0.28211380  0.78035765    -1.09200
C601        C  0.99997042  0.33124242  0.82640138     1.05500
C602        C  0.00111805  0.32680429  0.67048398     1.08100
C603        C  0.07774607  0.25154645  0.82762417     1.05600
C604        C  0.42318126  0.24788444  0.82909729     1.06000
C605        C  0.41926142  0.25131592  0.67348944     1.05600
C606        C  0.07640495  0.25003494  0.67135450     1.05100
C607        C  0.07912013  0.32708552  0.74954210     1.05600
C608        C  0.42156650  0.32750980  0.74982556     1.05100
H609        H  0.04349978  0.29309047  0.70561156     0.31700
O610        O  0.03054466  0.28070349  0.71854490    -1.30800
H611        H  0.45655332  0.29361215  0.79394067     0.31800
O612        O  0.46920704  0.28096175  0.78102162    -1.32200
O613        O  0.33641448  0.50020973  0.69829993    -0.87600
O614        O  0.16078092  0.49778154  0.70111625    -0.87800
O615        O  0.24809483  0.45089962  0.66181369    -0.89500
O616        O  0.24643929  0.05086305  0.66374344    -0.88200
O617        O  0.24721587  0.08741798  0.70121810    -0.87800
O618        O  0.24801797  0.41346657  0.69862255    -0.89200
O619        O  0.19802798  0.49947769  0.66378332    -0.87600
O620        O  0.29819029  0.49875379  0.66217327    -0.87200
Zr621      Zr  0.24847569  0.50003980  0.68796852     2.84300
O622        O  0.21723863  0.03075718  0.71953260    -1.09200
O623        O  0.28043248  0.46867442  0.71762750    -1.09900
C624        C  0.32681111  0.49977289  0.67028861     1.05500
C625        C  0.16974202  0.49822984  0.67290400     1.05400
C626        C  0.24791277  0.42269721  0.67056321     1.08400
C627        C  0.24621260  0.07903945  0.67292455     1.06200
H628        H  0.20483925  0.45575949  0.70606290     0.31800
O629        O  0.21782592  0.46853430  0.71868407    -1.30200
H630        H  0.29243777  0.04465984  0.70601278     0.31400
O631        O  0.28001137  0.03152688  0.71880265    -1.31800
O632        O  0.16279914  0.49847366  0.80095968    -0.87600
O633        O  0.33797861  0.49896534  0.79810510    -0.89100
O634        O  0.20054137  0.41189548  0.74972600    -0.87700
O635        O  0.19781560  0.08512395  0.75281478    -0.87700
O636        O  0.29810600  0.08772249  0.75040414    -0.87500
O637        O  0.29924008  0.41204127  0.74722916    -0.87300
O638        O  0.24847628  0.44867476  0.83556010    -0.87600
O639        O  0.25071737  0.04972805  0.83683261    -0.87100
O640        O  0.24942351  0.41181137  0.79815064    -0.88200
O641        O  0.25093572  0.08696365  0.79982684    -0.87300
O642        O  0.16269992  0.44867474  0.75148987    -0.87700
O643        O  0.33690688  0.44896353  0.74600253    -0.87400
O644        O  0.33616176  0.05114751  0.75079378    -0.87100
O645        O  0.16089827  0.04777786  0.75085432    -0.87500
O646        O  0.20087571  0.49897987  0.83749984    -0.87800
O647        O  0.30094746  0.49740335  0.83572921    -0.89100
Zr648      Zr  0.18713050  0.49882637  0.75052389     2.83100
Zr649      Zr  0.31194210  0.49916585  0.74854338     2.83500
Zr650      Zr  0.24974304  0.43780009  0.74882346     2.84100
Zr651      Zr  0.24863742  0.06142883  0.75044949     2.83400
Zr652      Zr  0.25040528  0.49875907  0.81130650     2.84200
O653        O  0.28086058  0.03109764  0.78081691    -1.09700
O654        O  0.21882280  0.46788358  0.78075232    -1.09200
C655        C  0.17233415  0.49857195  0.82899608     1.05500
C656        C  0.32921947  0.49783344  0.82635124     1.08100
C657        C  0.17219432  0.42065492  0.75109525     1.05600
C658        C  0.16945528  0.07594861  0.75245479     1.06000
C659        C  0.32664058  0.07918836  0.75068462     1.05600
C660        C  0.32760563  0.42084227  0.74601734     1.05100
C661        C  0.24836119  0.42059679  0.82636027     1.05600
C662        C  0.25135340  0.07797315  0.82792828     1.05100
H663        H  0.29437017  0.45497815  0.79220732     0.31700
O664        O  0.28139720  0.46803445  0.77982702    -1.30800
H665        H  0.20541454  0.04252913  0.79452079     0.31800
O666        O  0.21817750  0.03003510  0.78142149    -1.32200
O667        O  0.19935677  0.16387477  0.00114155    -0.87600
O668        O  0.20019779  0.33840764  0.99764448    -0.87800
O669        O  0.15939802  0.25134243  0.54851707    -0.89500
O670        O  0.16096918  0.25130269  0.95059435    -0.88200
O671        O  0.19843999  0.25072905  0.91345671    -0.87800
O672        O  0.19652934  0.24966841  0.58609662    -0.89200
O673        O  0.16263338  0.30143514  0.99735027    -0.87600
O674        O  0.16227145  0.20150225  0.00069849    -0.87200
Zr675      Zr  0.18702527  0.25129411  0.99964440     2.84300
O676        O  0.21844485  0.28163605  0.96841790    -1.09200
O677        O  0.21655833  0.21962863  0.53114936    -1.09900
C678        C  0.17117347  0.17333159  0.00102219     1.05500
C679        C  0.17177416  0.32954518  0.99735422     1.05400
C680        C  0.16823776  0.25036043  0.57668791     1.08400
C681        C  0.17001908  0.25134997  0.92250598     1.06200
H682        H  0.20387115  0.29459866  0.54306317     0.31800
O683        O  0.21701439  0.28172340  0.53064426    -1.30200
H684        H  0.20447299  0.20699623  0.95554558     0.31400
O685        O  0.21771648  0.21991274  0.96841910    -1.31800
O686        O  0.30055049  0.33690535  0.99874315    -0.87600
O687        O  0.29917541  0.16342238  0.99959156    -0.89100
O688        O  0.24591191  0.30025956  0.58749037    -0.87700
O689        O  0.24984979  0.29978501  0.91192289    -0.87700
O690        O  0.24925623  0.20089866  0.91163115    -0.87500
O691        O  0.24842126  0.20107304  0.58746568    -0.87300
O692        O  0.33546851  0.25088606  0.55124102    -0.87600
O693        O  0.33718984  0.24977600  0.95045549    -0.87100
O694        O  0.29742072  0.25002301  0.58789286    -0.88200
O695        O  0.30001083  0.24930140  0.91295146    -0.87300
O696        O  0.24669294  0.33687592  0.54984229    -0.87700
O697        O  0.24791633  0.16426739  0.55027820    -0.87400
O698        O  0.24783766  0.16386071  0.94880739    -0.87100
O699        O  0.24992915  0.33714367  0.94890441    -0.87500
O700        O  0.33772095  0.29946989  0.00005762    -0.87800
O701        O  0.33685266  0.20017780  0.00049050    -0.89100
Zr702      Zr  0.24988681  0.31244412  0.99916624     2.83100
Zr703      Zr  0.24908259  0.18892222  0.99900019     2.83500
Zr704      Zr  0.24754456  0.25067338  0.56206454     2.84100
Zr705      Zr  0.24937954  0.25031114  0.93760228     2.83400
Zr706      Zr  0.31153297  0.25011032  0.00008331     2.84200
O707        O  0.28073384  0.21937355  0.96840222    -1.09700
O708        O  0.27957952  0.28157996  0.53172883    -1.09200
C709        C  0.32892334  0.32770541  0.99901138     1.05500
C710        C  0.32769634  0.17204136  0.00052310     1.08100
C711        C  0.24548903  0.32827822  0.57812752     1.05600
C712        C  0.25024978  0.32799852  0.92074864     1.06000
C713        C  0.24824862  0.17275702  0.92058121     1.05600
C714        C  0.24868880  0.17289557  0.57846822     1.05100
C715        C  0.32593697  0.25014676  0.57925578     1.05600
C716        C  0.32837423  0.24968615  0.92221362     1.05100
H717        H  0.29222358  0.20693355  0.54447158     0.31700
O718        O  0.27947632  0.21970294  0.53177693    -1.30800
H719        H  0.29383206  0.29354467  0.95583063     0.31800
O720        O  0.28086935  0.28107314  0.96853008    -1.32200
C721        C  0.24579264  0.10346591  0.64901844    -0.07300
C722        C  0.25553889  0.09600134  0.61930594    -0.18400
C723        C  0.25831404  0.11809548  0.59638648     0.09900
C724        C  0.24942438  0.14873765  0.60241458    -0.07200
C725        C  0.23943539  0.15626478  0.63203507    -0.18400
C726        C  0.23718772  0.13419268  0.65504127     0.10000
S727        S  0.27487158  0.10551782  0.56065988    -0.33400
S728        S  0.22018682  0.14648559  0.69042902    -0.33400
H729        H  0.19902419  0.12206321  0.69042171     0.28000
H730        H  0.29511993  0.13059856  0.55841767     0.28000
H731        H  0.26166203  0.07271879  0.61383876     0.18600
H732        H  0.23204668  0.17939959  0.63715615     0.18600
C733        C  0.24729928  0.39893529  0.64661370    -0.07300
C734        C  0.22657850  0.37447231  0.64966794    -0.18400
C735        C  0.22483857  0.35141521  0.62749733     0.09900
C736        C  0.24434503  0.35268727  0.60154187    -0.07200
C737        C  0.26460764  0.37748511  0.59831558    -0.18400
C738        C  0.26679696  0.40014028  0.62077326     0.10800
S739        S  0.19661535  0.32174970  0.63334728    -0.33400
S740        S  0.29667411  0.42848156  0.61629499    -0.33400
H741        H  0.30455051  0.42953799  0.64750135     0.28000
H742        H  0.19055440  0.31728620  0.60209869     0.28000
H743        H  0.21130406  0.37355417  0.66928470     0.18600
H744        H  0.28001221  0.37843452  0.57881010     0.18600
C745        C  0.25080204  0.35178464  0.89667012    -0.07300
C746        C  0.23070082  0.37684097  0.89937538    -0.18400
C747        C  0.22851337  0.39891141  0.87630506     0.09900
C748        C  0.24757238  0.39659772  0.85013582    -0.07200
C749        C  0.26772182  0.37158112  0.84742084    -0.18400
C750        C  0.26990040  0.34949307  0.87049929     0.10000
S751        S  0.19972787  0.42842205  0.88096300    -0.33400
S752        S  0.29885945  0.32013433  0.86595521    -0.33400
H753        H  0.30599157  0.31774188  0.89722981     0.28000
H754        H  0.19208462  0.43032146  0.84979070     0.28000
H755        H  0.21573211  0.37866424  0.91915263     0.18600
H756        H  0.28279591  0.36986259  0.82770688     0.18600
C757        C  0.25176689  0.10204223  0.85179484    -0.07300
C758        C  0.23011273  0.10031259  0.87559277    -0.18400
C759        C  0.22757153  0.12360382  0.89747930     0.09900
C760        C  0.24798248  0.14881403  0.89654229    -0.07200
C761        C  0.26947588  0.15071457  0.87258066    -0.18400
C762        C  0.27171543  0.12765959  0.85037142     0.10000
S763        S  0.19640670  0.12088131  0.92464165    -0.33400
S764        S  0.30129894  0.13181672  0.82161608    -0.33400
H765        H  0.30782034  0.10039589  0.81902016     0.28000
H766        H  0.19091022  0.15253155  0.92587571     0.28000
H767        H  0.21413157  0.08126379  0.87639618     0.18600
H768        H  0.28527226  0.16990970  0.87163921     0.18600
C769        C  0.39748914  0.14798072  0.75476132    -0.07300
C770        C  0.37170357  0.15227298  0.73578984    -0.18400
C771        C  0.34833913  0.13036439  0.73380112     0.09900
C772        C  0.35050507  0.10331088  0.75141832    -0.07200
C773        C  0.37600949  0.09928987  0.77088870    -0.18400
C774        C  0.39921532  0.12143517  0.77314101     0.10000
S775        S  0.31725979  0.13802684  0.70737643    -0.33400
S776        S  0.42938346  0.11495121  0.80090029    -0.33400
H777        H  0.43424055  0.14593306  0.80804144     0.28000
H778        H  0.31414657  0.10763301  0.69728798     0.28000
H779        H  0.37018599  0.17253100  0.72157557     0.18600
H780        H  0.37746016  0.07904353  0.78512105     0.18600
C781        C  0.39738033  0.35119523  0.74952825    -0.07300
C782        C  0.39974343  0.37490605  0.72807903    -0.18400
C783        C  0.37652497  0.39692298  0.72524083     0.09900
C784        C  0.35121591  0.39654698  0.74555057    -0.07200
C785        C  0.34861569  0.37257894  0.76671617    -0.18400
C786        C  0.37129827  0.34992248  0.76890259     0.10000
S787        S  0.37936905  0.42293370  0.69354997    -0.33400
S788        S  0.36593317  0.32065758  0.79748242    -0.33400
H789        H  0.39730392  0.31822120  0.80536034     0.28000
H790        H  0.34754006  0.42815655  0.69003703     0.28000
H791        H  0.41913546  0.37543989  0.71241461     0.18600
H792        H  0.32910279  0.37189880  0.78221784     0.18600
C793        C  0.10044207  0.14706839  0.74862951    -0.07300
C794        C  0.09206432  0.11735766  0.75782598    -0.18400
C795        C  0.11388234  0.09393378  0.76042845     0.09900
C796        C  0.14513918  0.09987704  0.75297404    -0.07200
C797        C  0.15338199  0.12956713  0.74392976    -0.18400
C798        C  0.13152077  0.15267601  0.74052484     0.10000
S799        S  0.10026991  0.05783850  0.77516868    -0.33400
S800        S  0.14477838  0.18771588  0.72324085    -0.33400
H801        H  0.11942175  0.18986111  0.70321141     0.28000
H802        H  0.12474825  0.05466667  0.79612601     0.28000
H803        H  0.06837715  0.11236926  0.76394891     0.18600
H804        H  0.17706601  0.13476659  0.73833927     0.18600
C805        C  0.10328843  0.35069334  0.74892416    -0.07300
C806        C  0.12837489  0.34796953  0.76909289    -0.18400
C807        C  0.15089336  0.37078332  0.77088016     0.09900
C808        C  0.14864040  0.39662517  0.75161518    -0.07200
C809        C  0.12386355  0.39914564  0.73124842    -0.18400
C810        C  0.10136570  0.37645566  0.72946523     0.10000
S811        S  0.18099771  0.36621275  0.79907717    -0.33400
S812        S  0.07155541  0.38170290  0.70115219    -0.33400
H813        H  0.06601466  0.35060161  0.69564532     0.28000
H814        H  0.18397704  0.39754579  0.80559242     0.28000
H815        H  0.12987747  0.32844854  0.78429748     0.18600
H816        H  0.12244484  0.41864635  0.71599784     0.18600
C817        C  0.39465397  0.25229345  0.65012795    -0.07300
C818        C  0.37249864  0.22889012  0.64981310    -0.18400
C819        C  0.35003930  0.22730272  0.62680188     0.09900
C820        C  0.34964878  0.24967993  0.60344194    -0.07200
C821        C  0.37160736  0.27322807  0.60393933    -0.18400
C822        C  0.39349448  0.27526179  0.62741001     0.10000
S823        S  0.32322262  0.19571842  0.62828857    -0.33400
S824        S  0.41769414  0.30883987  0.62816253    -0.33400
H825        H  0.42255891  0.30932193  0.65995718     0.28000
H826        H  0.31800400  0.19353600  0.59668416     0.28000
H827        H  0.37317160  0.21125964  0.66722432     0.18600
H828        H  0.37088019  0.29090678  0.58657478     0.18600
C829        C  0.09983956  0.25058607  0.64724292    -0.07300
C830        C  0.11176666  0.22275102  0.63667422    -0.18400
C831        C  0.13346134  0.22183322  0.61298299     0.09900
C832        C  0.14401552  0.24956460  0.60013690    -0.07200
C833        C  0.13164470  0.27734311  0.61048434    -0.18400
C834        C  0.10957609  0.27816201  0.63372121     0.10000
S835        S  0.14598621  0.18445383  0.60026728    -0.33400
S836        S  0.09469038  0.31492201  0.64514282    -0.33400
H837        H  0.09409481  0.30786484  0.67647782     0.28000
H838        H  0.16592668  0.19311136  0.57656450     0.28000
H839        H  0.10386940  0.20153102  0.64677328     0.18600
H840        H  0.13962301  0.29862423  0.60091035     0.18600
C841        C  0.14598279  0.25169926  0.89863965    -0.07300
C842        C  0.14984848  0.23274511  0.87301315    -0.18400
C843        C  0.12801142  0.23220607  0.84942325     0.09900
C844        C  0.10163198  0.25108034  0.85156986    -0.07200
C845        C  0.09756456  0.26978769  0.87736351    -0.18400
C846        C  0.11957772  0.27057797  0.90078909     0.10000
S847        S  0.13332497  0.20605576  0.81774176    -0.33400
S848        S  0.11473451  0.29739467  0.93197292    -0.33400
H849        H  0.08519420  0.30783901  0.92369717     0.28000
H850        H  0.16355726  0.19691470  0.82512307     0.28000
H851        H  0.16986873  0.21794505  0.87177543     0.18600
H852        H  0.07743127  0.28443620  0.87869819     0.18600
C853        C  0.35273956  0.24990265  0.89852092    -0.07300
C854        C  0.35019789  0.22957190  0.87378168    -0.18400
C855        C  0.37336799  0.22754906  0.85156240     0.09900
C856        C  0.39939794  0.24698004  0.85335323    -0.07200
C857        C  0.40201617  0.26721671  0.87815078    -0.18400
C858        C  0.37894559  0.26912962  0.90049613     0.10000
S859        S  0.36924913  0.19848116  0.82256484    -0.33400
S860        S  0.38368953  0.29768235  0.92996103    -0.33400
H861        H  0.35217391  0.30498750  0.93229927     0.28000
H862        H  0.40078040  0.19077194  0.82212431     0.28000
H863        H  0.33049299  0.21437336  0.87231013     0.18600
H864        H  0.42168517  0.28246742  0.87955281     0.18600
C865        C  0.39859478  0.39715398  0.49804352    -0.07300
C866        C  0.37405427  0.40019313  0.98122906    -0.18400
C867        C  0.35113447  0.37772166  0.97961459     0.09900
C868        C  0.35166436  0.35210976  0.49800462    -0.07200
C869        C  0.37672701  0.35003153  0.51822981    -0.18400
C870        C  0.39988601  0.37233379  0.51873526     0.10000
S871        S  0.32066889  0.38336499  0.95201748    -0.33400
S872        S  0.42943410  0.36862820  0.54754330    -0.33400
H873        H  0.43133268  0.40010016  0.55406399     0.28000
H874        H  0.31853017  0.35239197  0.94358235     0.28000
H875        H  0.37214118  0.42014797  0.96664283     0.18600
H876        H  0.37777672  0.33134794  0.53448669     0.18600
C877        C  0.39479964  0.10062061  0.49605300    -0.07300
C878        C  0.39874701  0.12556949  0.51592080    -0.18400
C879        C  0.37664928  0.14875557  0.51809527     0.09900
C880        C  0.35048098  0.14805066  0.49886070    -0.07200
C881        C  0.34515576  0.11961733  0.98648746    -0.18400
C882        C  0.36728177  0.09630215  0.98456622     0.10000
S883        S  0.38204379  0.17713015  0.54759050    -0.33400
S884        S  0.35745789  0.06320080  0.96194234    -0.33400
H885        H  0.38641211  0.06151831  0.94744490     0.28000
H886        H  0.35052791  0.18002587  0.55459305     0.28000
H887        H  0.41867976  0.12636079  0.53090198     0.18600
H888        H  0.32310009  0.11631007  0.97525606     0.18600
C889        C  0.10456897  0.40183563  0.49675296    -0.07300
C890        C  0.10109954  0.37706311  0.51676675    -0.18400
C891        C  0.12270736  0.35348844  0.51770111     0.09900
C892        C  0.14823932  0.35405730  0.49774038    -0.07200
C893        C  0.15215508  0.37986497  0.97952765    -0.18400
C894        C  0.12998612  0.40316877  0.97868386     0.10000
S895        S  0.11728085  0.32430793  0.54610542    -0.33400
S896        S  0.13602138  0.43422582  0.95219609    -0.33400
H897        H  0.10473671  0.43738318  0.94406343     0.28000
H898        H  0.14881299  0.32259843  0.55367537     0.28000
H899        H  0.08168408  0.37642183  0.53239929     0.18600
H900        H  0.17252849  0.38183161  0.96529002     0.18600
C901        C  0.10081947  0.10253141  0.50111292    -0.07300
C902        C  0.09877191  0.12943889  0.98203669    -0.18400
C903        C  0.12192998  0.15144953  0.98031373     0.09900
C904        C  0.14681706  0.14815440  0.49773328    -0.07200
C905        C  0.15184636  0.12129827  0.51461203    -0.18400
C906        C  0.12925542  0.09860651  0.51659686     0.10000
S907        S  0.11864093  0.17982197  0.95048253    -0.33400
S908        S  0.13771968  0.06603598  0.54050726    -0.33400
H909        H  0.10802581  0.06467481  0.55346659     0.28000
H910        H  0.15043757  0.18322958  0.94535154     0.28000
H911        H  0.07978675  0.13025509  0.96588833     0.18600
H912        H  0.17319729  0.11835168  0.52721584     0.18600
C913        C  0.35298466  0.99811833  0.85167885    -0.07300
C914        C  0.38008074  0.01521014  0.84761850    -0.18400
C915        C  0.40225849  0.01742028  0.87078303     0.09900
C916        C  0.39803487  0.00129037  0.89854444    -0.07200
C917        C  0.37576724  0.47901752  0.89747867    -0.18400
C918        C  0.35357137  0.47640798  0.87437730     0.10000
S919        S  0.43437833  0.04282744  0.86411797    -0.33400
S920        S  0.32700849  0.44469054  0.87672848    -0.33400
H921        H  0.32338025  0.44077572  0.84500390     0.28000
H922        H  0.43474254  0.05467415  0.89407493     0.28000
H923        H  0.38345397  0.02804013  0.82668705     0.18600
H924        H  0.37583835  0.46250323  0.91596528     0.18600
C925        C  0.10470567  0.00453073  0.89944119    -0.07300
C926        C  0.09930131  0.48397776  0.87475922    -0.18400
C927        C  0.12149087  0.48132802  0.85175048     0.09900
C928        C  0.14956716  0.99876199  0.85331844    -0.07200
C929        C  0.15386745  0.01935185  0.87765024    -0.18400
C930        C  0.13149730  0.02291794  0.90037451     0.10000
S931        S  0.11395345  0.45415045  0.82159874    -0.33400
S932        S  0.13772881  0.05261577  0.92845520    -0.33400
H933        H  0.10638875  0.05961247  0.93309800     0.28000
H934        H  0.14470875  0.44422538  0.81886802     0.28000
H935        H  0.07868353  0.47000165  0.87340719     0.18600
H936        H  0.17423467  0.03373692  0.87825030     0.18600
C937        C  0.10101615  0.00312346  0.60145211    -0.07300
C938        C  0.12732092  0.48424917  0.59825862    -0.18400
C939        C  0.14881937  0.48061040  0.62186522     0.09900
C940        C  0.14610440  0.99932004  0.64814506    -0.07200
C941        C  0.11955846  0.01735407  0.65207235    -0.18400
C942        C  0.09731985  0.01983915  0.62894655     0.10000
S943        S  0.17849351  0.45203496  0.61669363    -0.33400
S944        S  0.06583281  0.04615400  0.63523787    -0.33400
H945        H  0.06461229  0.05652076  0.60478920     0.28000
H946        H  0.18009206  0.44348835  0.64767357     0.28000
H947        H  0.12951631  0.47029358  0.57786762     0.18600
H948        H  0.11666627  0.03055262  0.67287491     0.18600
C949        C  0.35061183  0.00185463  0.64626947    -0.07300
C950        C  0.38034528  0.48927982  0.65265997    -0.18400
C951        C  0.40283011  0.48564802  0.63008430     0.09900
C952        C  0.39656192  0.99682759  0.60034159    -0.07200
C953        C  0.36789811  0.01031029  0.59392849    -0.18400
C954        C  0.34488242  0.01251833  0.61619257     0.10000
S955        S  0.43787790  0.46644059  0.64125204    -0.33400
S956        S  0.30964637  0.03096287  0.60483631    -0.33400
H957        H  0.30831572  0.04906876  0.63143727     0.28000
H958        H  0.43962777  0.44864705  0.61444168     0.28000
H959        H  0.38604713  0.48290316  0.67585178     0.18600
H960        H  0.36349564  0.01987243  0.57148512     0.18600
C961        C  0.00195139  0.15176754  0.85449326    -0.07300
C962        C  0.48454914  0.15291813  0.87745508    -0.18400
C963        C  0.48243048  0.13087624  0.90057578     0.09900
C964        C  0.00014129  0.10546744  0.89961589    -0.07200
C965        C  0.02339462  0.10562234  0.87724849    -0.18400
C966        C  0.02490245  0.12880207  0.85519049     0.10000
S967        S  0.45553428  0.13831435  0.93118994    -0.33400
S968        S  0.05762933  0.12884147  0.82973419    -0.33400
H969        H  0.05989701  0.16085026  0.82730952     0.28000
H970        H  0.44582925  0.10778633  0.93430282     0.28000
H971        H  0.47008098  0.17312087  0.87882303     0.18600
H972        H  0.04113975  0.08812259  0.87760458     0.18600
C973        C  0.99997215  0.35544204  0.85044478    -0.07300
C974        C  0.01690477  0.35016631  0.87738444    -0.18400
C975        C  0.01880270  0.37218122  0.90063290     0.09900
C976        C  0.00267438  0.40018811  0.89767333    -0.07200
C977        C  0.48285232  0.40141043  0.87157820    -0.18400
C978        C  0.48063003  0.37808450  0.84962247     0.10000
S979        S  0.04369108  0.36373741  0.93259946    -0.33400
S980        S  0.44942083  0.38053267  0.82237063    -0.33400
H981        H  0.44385238  0.34886022  0.82116310     0.28000
H982        H  0.05626533  0.39336957  0.93424956     0.28000
H983        H  0.02966953  0.32898974  0.87999187     0.18600
H984        H  0.46679742  0.42041948  0.87059071     0.18600
C985        C  0.00236551  0.39855285  0.60175962    -0.07300
C986        C  0.00078881  0.36764190  0.59284631    -0.18400
C987        C  0.00201985  0.34379085  0.61411170     0.09900
C988        C  0.00255118  0.35054422  0.64590143    -0.07200
C989        C  0.50429448  0.38164739  0.65471543    -0.18400
C990        C  0.50721578  0.40519713  0.63324309     0.10000
S991        S  0.00384060  0.30566101  0.59839480    -0.33400
S992        S  0.51773740  0.44214135  0.64833655    -0.33400
H993        H  0.54225784  0.44604299  0.62758773     0.28000
H994        H  0.03097276  0.29806774  0.61441222     0.28000
H995        H  0.99949416  0.36169843  0.56883081     0.18600
H996        H  0.50601346  0.38755920  0.67870146     0.18600
C997        C  0.99664589  0.10101424  0.60384288    -0.07300
C998        C  0.51309860  0.12838964  0.59690772    -0.18400
C999        C  0.51463340  0.15128678  0.61931375     0.09900
C1000       C  0.99943977  0.14730543  0.64940395    -0.07200
C1001       C  0.98135750  0.12104735  0.65375893    -0.18400
C1002       C  0.97987556  0.09782679  0.63151404     0.10000
S1003       S  0.53953624  0.18387073  0.61289965    -0.33400
S1004       S  0.95524213  0.06517377  0.63837467    -0.33400
H1005       H  0.94804335  0.07194692  0.66902921     0.28000
H1006       H  0.55183440  0.17434537  0.58468304     0.28000
H1007       H  0.52638928  0.13078146  0.57608545     0.18600
H1008       H  0.96783439  0.11905658  0.67448100     0.18600
O1009       O  0.99944947  0.55059988  0.08782059    -0.87600
O1010       O  0.99663178  0.55039934  0.41253400    -0.87800
O1011       O  0.04701720  0.59022165  0.00249202    -0.89500
O1012       O  0.44665813  0.58589036  0.00028285    -0.88200
O1013       O  0.41060484  0.54744739  0.99885207    -0.87800
O1014       O  0.08530962  0.55397128  0.00261896    -0.89200
O1015       O  0.99488230  0.58736545  0.44984106    -0.87600
O1016       O  0.99813780  0.58812686  0.05120869    -0.87200
Zr1017     Zr  0.99829129  0.56297466  0.00134429     2.84300
O1018       O  0.46807679  0.53162779  0.46819805    -1.09200
O1019       O  0.03084171  0.53321332  0.03205738    -1.09900
C1020       C  0.99855239  0.57883263  0.07926272     1.05500
C1021       C  0.99498420  0.57854525  0.42164707     1.05400
C1022       C  0.07561009  0.58194013  0.00309471     1.08400
C1023       C  0.41859846  0.57588350  0.99936969     1.06200
H1024       H  0.04173879  0.54541545  0.45519466     0.31800
O1025       O  0.02929874  0.53235521  0.46807354    -1.30200
H1026       H  0.45460623  0.54301767  0.04329248     0.31400
O1027       O  0.46788837  0.53099380  0.03028090    -1.31800
O1028       O  0.00177019  0.95057665  0.41259751    -0.87600
O1029       O  0.00262162  0.95256714  0.08714892    -0.89100
O1030       O  0.08612859  0.50135979  0.44925572    -0.87700
O1031       O  0.41314644  0.50238904  0.44868705    -0.87700
O1032       O  0.41373104  0.49550934  0.04867845    -0.87500
O1033       O  0.08839369  0.50208670  0.05049726    -0.87300
O1034       O  0.05421858  0.91700838  0.99642979    -0.87600
O1035       O  0.45391620  0.91194384  0.00180499    -0.87100
O1036       O  0.09092746  0.95482254  0.99632310    -0.88200
O1037       O  0.41578071  0.94842156  0.00171000    -0.87300
O1038       O  0.04880541  0.49935933  0.41201338    -0.87700
O1039       O  0.05084070  0.50283889  0.08756408    -0.87400
O1040       O  0.45112877  0.49779376  0.08561131    -0.87100
O1041       O  0.45067881  0.50230573  0.41182872    -0.87500
O1042       O  0.00123084  0.91329613  0.44950823    -0.87800
O1043       O  0.00541312  0.91566141  0.05023274    -0.89100
Zr1044     Zr  0.99856760  0.50035760  0.43758062     2.83100
Zr1045     Zr  0.00066531  0.50113756  0.06228876     2.83500
Zr1046     Zr  0.06254150  0.50291580  0.00110712     2.84100
Zr1047     Zr  0.43833916  0.49903449  0.99865659     2.83400
Zr1048     Zr  0.00331865  0.94017212  0.99969873     2.84200
O1049       O  0.47151958  0.96916595  0.03070434    -1.09700
O1050       O  0.03035017  0.96962781  0.46874509    -1.09200
C1051       C  0.00243992  0.92235315  0.42141784     1.05500
C1052       C  0.00469064  0.92445106  0.07855992     1.08100
C1053       C  0.07722366  0.50020452  0.42111194     1.05600
C1054       C  0.42231793  0.50326795  0.42062270     1.06000
C1055       C  0.42281943  0.49543863  0.07685898     1.05600
C1056       C  0.07924358  0.50261830  0.07857716     1.05100
C1057       C  0.08238996  0.92656047  0.99508884     1.05600
C1058       C  0.42535832  0.92038493  0.00239208     1.05100
H1059       H  0.04727905  0.95876078  0.04368520     0.31700
O1060       O  0.03397415  0.97116383  0.03107605    -1.30800
H1061       H  0.45620756  0.95564435  0.45506911     0.31800
O1062       O  0.46884607  0.96877802  0.46762740    -1.32200
O1063       O  0.00099795  0.69996494  0.16440348    -0.87600
O1064       O  0.99749742  0.70185619  0.33836875    -0.87800
O1065       O  0.04882080  0.66290809  0.24902863    -0.89500
O1066       O  0.45106652  0.66294885  0.25194400    -0.88200
O1067       O  0.41363430  0.69997939  0.25176743    -0.87800
O1068       O  0.08631974  0.69957297  0.25085500    -0.89200
O1069       O  0.99950807  0.66470952  0.30129851    -0.87600
O1070       O  0.99964203  0.66296320  0.20155127    -0.87200
Zr1071     Zr  0.99931235  0.68893158  0.25089896     2.84300
O1072       O  0.46942773  0.71949686  0.28117821    -1.09200
O1073       O  0.03110021  0.71898641  0.21982380    -1.09900
C1074       C  0.00082406  0.67183817  0.17338773     1.05500
C1075       C  0.99856111  0.67367016  0.32948214     1.05400
C1076       C  0.07731367  0.67151420  0.24923235     1.08400
C1077       C  0.42266368  0.67182588  0.25262524     1.06200
H1078       H  0.04313916  0.70653763  0.29481340     0.31800
O1079       O  0.03052702  0.71949337  0.28192947    -1.30200
H1080       H  0.45667611  0.70618427  0.20588344     0.31400
O1081       O  0.46950383  0.71904140  0.21855486    -1.31800
O1082       O  0.00015821  0.80094316  0.33682548    -0.87600
O1083       O  0.00167116  0.79963265  0.16295508    -0.89100
O1084       O  0.08709628  0.74840491  0.30059043    -0.87700
O1085       O  0.41361604  0.74963542  0.29999635    -0.87700
O1086       O  0.41286061  0.75019276  0.20017923    -0.87500
O1087       O  0.08836817  0.74831196  0.20119513    -0.87300
O1088       O  0.05073628  0.83681286  0.24938090    -0.87600
O1089       O  0.44917292  0.83598563  0.24737689    -0.87100
O1090       O  0.08790574  0.79936088  0.25039411    -0.88200
O1091       O  0.41208234  0.79851112  0.24878249    -0.87300
O1092       O  0.04913606  0.74996404  0.33729140    -0.87700
O1093       O  0.05121265  0.74990397  0.16366212    -0.87400
O1094       O  0.45031424  0.75195049  0.16302456    -0.87100
O1095       O  0.45091128  0.75054566  0.33726640    -0.87500
O1096       O  0.00225852  0.83752540  0.29924977    -0.87800
O1097       O  0.00182146  0.83699035  0.19944572    -0.89100
Zr1098     Zr  0.99901323  0.75102394  0.31204583     2.83100
Zr1099     Zr  0.00063116  0.75014890  0.18854990     2.83500
Zr1100     Zr  0.06211910  0.74977214  0.25078579     2.84100
Zr1101     Zr  0.43851416  0.74979476  0.24977506     2.83400
Zr1102     Zr  0.00045787  0.81218410  0.24962040     2.84200
O1103       O  0.46929720  0.78085070  0.21855947    -1.09700
O1104       O  0.03098562  0.78129771  0.28124151    -1.09200
C1105       C  0.00130905  0.82895707  0.32750662     1.05500
C1106       C  0.00236805  0.82793929  0.17123856     1.08100
C1107       C  0.07758857  0.74857829  0.32856858     1.05600
C1108       C  0.42257652  0.74971404  0.32822273     1.06000
C1109       C  0.42185580  0.75165062  0.17204942     1.05600
C1110       C  0.07953835  0.74908117  0.17294899     1.05100
C1111       C  0.07905100  0.82758509  0.24921293     1.05600
C1112       C  0.42086790  0.82664556  0.24799361     1.05100
H1113       H  0.04499416  0.79338697  0.20658828     0.31700
O1114       O  0.03185399  0.78092743  0.21933017    -1.30800
H1115       H  0.45582745  0.79437853  0.29282074     0.31800
O1116       O  0.46892022  0.78171781  0.28032314    -1.32200
O1117       O  0.33858811  0.00199266  0.19956153    -0.87600
O1118       O  0.16328074  0.00017671  0.19992460    -0.87800
O1119       O  0.25437256  0.95086824  0.16218936    -0.89500
O1120       O  0.24888410  0.55007946  0.16332403    -0.88200
O1121       O  0.24884315  0.58677339  0.20078647    -0.87800
O1122       O  0.25269347  0.91340740  0.19896569    -0.89200
O1123       O  0.20076840  0.99985139  0.16275937    -0.87600
O1124       O  0.30104811  0.00140199  0.16273502    -0.87200
Zr1125     Zr  0.25085475  0.00064980  0.18781149     2.84300
O1126       O  0.21890680  0.52990018  0.21913357    -1.09200
O1127       O  0.28203466  0.96960522  0.21828348    -1.09900
C1128       C  0.32953478  0.00210330  0.17138443     1.05500
C1129       C  0.17241185  0.99991198  0.17184231     1.05400
C1130       C  0.25449088  0.92259272  0.17094160     1.08400
C1131       C  0.24824657  0.57833778  0.17247289     1.06200
H1132       H  0.20715500  0.95610190  0.20490802     0.31800
O1133       O  0.21969761  0.96891236  0.21794277    -1.30200
H1134       H  0.29373978  0.54393133  0.20589505     0.31400
O1135       O  0.28112442  0.53099081  0.21870549    -1.31800
O1136       O  0.16256506  0.99522904  0.29912089    -0.87600
O1137       O  0.33783770  0.99905379  0.29875311    -0.89100
O1138       O  0.20127831  0.91282951  0.24806228    -0.87700
O1139       O  0.19880654  0.58500438  0.25088893    -0.87700
O1140       O  0.29901648  0.58725504  0.25034866    -0.87500
O1141       O  0.30067229  0.91319091  0.24744606    -0.87300
O1142       O  0.24899426  0.94934891  0.33637359    -0.87600
O1143       O  0.24936112  0.54896296  0.33746665    -0.87100
O1144       O  0.25068088  0.91263863  0.29884707    -0.88200
O1145       O  0.25016438  0.58603595  0.30033239    -0.87300
O1146       O  0.16318477  0.94930478  0.24815710    -0.87700
O1147       O  0.33826561  0.95022178  0.24631247    -0.87400
O1148       O  0.33689578  0.55063114  0.24898241    -0.87100
O1149       O  0.16207782  0.54753884  0.24953527    -0.87500
O1150       O  0.20020286  0.99665852  0.33599487    -0.87800
O1151       O  0.30042483  0.99734496  0.33597815    -0.89100
Zr1152     Zr  0.18831692  0.99903629  0.24958720     2.83100
Zr1153     Zr  0.31292601  0.00055065  0.24917194     2.83500
Zr1154     Zr  0.25102905  0.93825848  0.24886392     2.84100
Zr1155     Zr  0.24954901  0.56106529  0.25024356     2.83400
Zr1156     Zr  0.25038434  0.99889272  0.31114570     2.84200
O1157       O  0.28122775  0.53053709  0.28083435    -1.09700
O1158       O  0.21944036  0.96798783  0.28020613    -1.09200
C1159       C  0.17177883  0.99492048  0.32724085     1.05500
C1160       C  0.32871381  0.99752906  0.32678672     1.08100
C1161       C  0.17276753  0.92132061  0.24832574     1.05600
C1162       C  0.17046516  0.57577276  0.25058069     1.06000
C1163       C  0.32752576  0.57875283  0.24939721     1.05600
C1164       C  0.32899169  0.92202630  0.24617405     1.05100
C1165       C  0.24924669  0.92129573  0.32715000     1.05600
C1166       C  0.25002400  0.57716098  0.32854298     1.05100
H1167       H  0.29513139  0.95573694  0.29238580     0.31700
O1168       O  0.28222305  0.96880144  0.27994038    -1.30800
H1169       H  0.20539222  0.54262412  0.29395045     0.31800
O1170       O  0.21844335  0.53014766  0.28110551    -1.32200
O1171       O  0.19797228  0.66353127  0.50139871    -0.87600
O1172       O  0.19975215  0.83763626  0.49881915    -0.87800
O1173       O  0.16196310  0.75314820  0.04869450    -0.89500
O1174       O  0.16141788  0.75003320  0.45040800    -0.88200
O1175       O  0.19874288  0.74916652  0.41305858    -0.87800
O1176       O  0.19928850  0.75041527  0.08602133    -0.89200
O1177       O  0.16194798  0.80086005  0.49906789    -0.87600
O1178       O  0.16118908  0.70137193  0.50120106    -0.87200
Zr1179     Zr  0.18687657  0.75088836  0.49986421     2.84300
O1180       O  0.21809577  0.78131585  0.46850001    -1.09200
O1181       O  0.21746703  0.72133604  0.03015868    -1.09900
C1182       C  0.16976999  0.67307368  0.50132395     1.05500
C1183       C  0.17127321  0.82892535  0.49893660     1.05400
C1184       C  0.17095848  0.75129629  0.07687585     1.08400
C1185       C  0.17045197  0.74949355  0.42229632     1.06200
H1186       H  0.20719241  0.79683198  0.04263522     0.31800
O1187       O  0.21973843  0.78349655  0.03003686    -1.30200
H1188       H  0.20415272  0.70644599  0.45608608     0.31400
O1189       O  0.21735798  0.71941721  0.46880202    -1.31800
O1190       O  0.30035473  0.83613857  0.49819248    -0.87600
O1191       O  0.29715029  0.66182281  0.49997368    -0.89100
O1192       O  0.25192839  0.80131007  0.08545370    -0.87700
O1193       O  0.24907622  0.79960419  0.41245200    -0.87700
O1194       O  0.24898844  0.69983600  0.41261638    -0.87500
O1195       O  0.24924671  0.70132843  0.08684903    -0.87300
O1196       O  0.33749954  0.74957341  0.04992492    -0.87600
O1197       O  0.33666190  0.75035619  0.44945136    -0.87100
O1198       O  0.29955961  0.75009492  0.08659975    -0.88200
O1199       O  0.29920216  0.75068289  0.41228670    -0.87300
O1200       O  0.25461709  0.83841962  0.04839879    -0.87700
O1201       O  0.24750950  0.66418043  0.04984545    -0.87400
O1202       O  0.24811838  0.66301913  0.45002249    -0.87100
O1203       O  0.24925993  0.83707906  0.44931731    -0.87500
O1204       O  0.33733322  0.79848856  0.49881682    -0.87800
O1205       O  0.33511074  0.69841504  0.49933537    -0.89100
Zr1206     Zr  0.24967948  0.81199886  0.49933038     2.83100
Zr1207     Zr  0.24810843  0.68841282  0.49981798     2.83500
Zr1208     Zr  0.24961279  0.75113990  0.06107779     2.84100
Zr1209     Zr  0.24902762  0.74976529  0.43777399     2.83400
Zr1210     Zr  0.31122195  0.74914336  0.49928927     2.84200
O1211       O  0.27994430  0.71827077  0.46841817    -1.09700
O1212       O  0.28215344  0.78102285  0.03048694    -1.09200
C1213       C  0.32864844  0.82676853  0.49796760     1.05500
C1214       C  0.32561889  0.67036954  0.50002640     1.08100
C1215       C  0.25352926  0.82945934  0.07656885     1.05600
C1216       C  0.24944667  0.82787328  0.42118809     1.06000
C1217       C  0.24824836  0.67172311  0.42176953     1.05600
C1218       C  0.24883750  0.67303174  0.07806363     1.05100
C1219       C  0.32805740  0.74960786  0.07796127     1.05600
C1220       C  0.32764439  0.75117359  0.42127543     1.05100
H1221       H  0.29245475  0.70608109  0.04354785     0.31700
O1222       O  0.28007761  0.71909347  0.03070816    -1.30800
H1223       H  0.29327214  0.79311392  0.45570399     0.31800
O1224       O  0.28037348  0.78049230  0.46854220    -1.32200
C1225       C  0.24748235  0.60296746  0.14861403    -0.07300
C1226       C  0.26077827  0.59707056  0.11991541    -0.18400
C1227       C  0.26324266  0.61976666  0.09742373     0.09900
C1228       C  0.24982547  0.64892868  0.10227277    -0.07200
C1229       C  0.23644612  0.65498277  0.13090340    -0.18400
C1230       C  0.23522380  0.63265703  0.15392484     0.10000
S1231       S  0.28632239  0.61072909  0.06432859    -0.33400
S1232       S  0.21618927  0.64346109  0.18881179    -0.33400
H1233       H  0.19913314  0.61613667  0.19064537     0.28000
H1234       H  0.30093175  0.63947479  0.06348087     0.28000
H1235       H  0.27045363  0.57485378  0.11521516     0.18600
H1236       H  0.22613403  0.67716377  0.13523931     0.18600
C1237       C  0.25593091  0.89859134  0.14704941    -0.07300
C1238       C  0.23488345  0.87430666  0.14882779    -0.18400
C1239       C  0.23350862  0.85178911  0.12614263     0.09900
C1240       C  0.25367673  0.85326574  0.10074141    -0.07200
C1241       C  0.27515558  0.87731232  0.09914734    -0.18400
C1242       C  0.27705797  0.89945990  0.12237578     0.10800
S1243       S  0.20467104  0.82239365  0.13057721    -0.33400
S1244       S  0.30827908  0.92671454  0.12026886    -0.33400
H1245       H  0.31104262  0.93142421  0.15192800     0.28000
H1246       H  0.19678689  0.82118504  0.09938614     0.28000
H1247       H  0.21872759  0.87328306  0.16772641     0.18600
H1248       H  0.29137412  0.87816160  0.08029745     0.18600
C1249       C  0.24990316  0.85164705  0.39701574    -0.07300
C1250       C  0.22916140  0.87623896  0.39903701    -0.18400
C1251       C  0.22765517  0.89858265  0.37612461     0.09900
C1252       C  0.24819657  0.89718338  0.35097122    -0.07200
C1253       C  0.26912495  0.87272170  0.34908363    -0.18400
C1254       C  0.27024516  0.84999514  0.37178495     0.10000
S1255       S  0.19778426  0.92715978  0.37951676    -0.33400
S1256       S  0.29896042  0.82006220  0.36923638    -0.33400
H1257       H  0.31190778  0.82926228  0.34124881     0.28000
H1258       H  0.19191169  0.92920764  0.34796634     0.28000
H1259       H  0.21322124  0.87746165  0.41810434     0.18600
H1260       H  0.28511384  0.87186408  0.33007341     0.18600
C1261       C  0.25037451  0.60125197  0.35251870    -0.07300
C1262       C  0.23032583  0.59856112  0.37764090    -0.18400
C1263       C  0.22860763  0.62141693  0.40012662     0.09900
C1264       C  0.24772042  0.64757660  0.39792408    -0.07200
C1265       C  0.26764677  0.65032151  0.37275401    -0.18400
C1266       C  0.26956736  0.62736209  0.35044177     0.10000
S1267       S  0.20062310  0.61640295  0.43028811    -0.33400
S1268       S  0.29830823  0.63197552  0.32094517    -0.33400
H1269       H  0.30627380  0.60079240  0.31941347     0.28000
H1270       H  0.19250909  0.64750856  0.43229147     0.28000
H1271       H  0.21522779  0.57887584  0.37933942     0.18600
H1272       H  0.28272798  0.67002153  0.37103337     0.18600
C1273       C  0.39830643  0.64806555  0.25339904    -0.07300
C1274       C  0.37015473  0.65432648  0.23872715    -0.18400
C1275       C  0.34690063  0.63230230  0.23652682     0.09900
C1276       C  0.35151304  0.60296935  0.24956553    -0.07200
C1277       C  0.37955643  0.59684979  0.26454310    -0.18400
C1278       C  0.40257968  0.61909637  0.26720712     0.10000
S1279       S  0.31270946  0.64300871  0.21552343    -0.33400
S1280       S  0.43571637  0.60955973  0.29032975    -0.33400
H1281       H  0.43773499  0.63855074  0.30422096     0.28000
H1282       H  0.31043152  0.61501876  0.19979016     0.28000
H1283       H  0.36649965  0.67635893  0.22795208     0.18600
H1284       H  0.38315721  0.57485038  0.27539722     0.18600
C1285       C  0.39666691  0.85023647  0.24752131    -0.07300
C1286       C  0.40014817  0.87480987  0.22728700    -0.18400
C1287       C  0.37784174  0.89776194  0.22530927     0.09900
C1288       C  0.35228773  0.89738500  0.24529565    -0.07200
C1289       C  0.34829484  0.87224693  0.26487587    -0.18400
C1290       C  0.36999673  0.84862304  0.26608588     0.10000
S1291       S  0.38205950  0.92494856  0.19491028    -0.33400
S1292       S  0.36265222  0.81776087  0.29246118    -0.33400
H1293       H  0.39337969  0.81537879  0.30259315     0.28000
H1294       H  0.35034273  0.92977506  0.19036795     0.28000
H1295       H  0.41984108  0.87548828  0.21199819     0.18600
H1296       H  0.32838415  0.87129035  0.27985997     0.18600
C1297       C  0.10132422  0.64718266  0.24814161    -0.07300
C1298       C  0.09265854  0.61688835  0.25472097    -0.18400
C1299       C  0.11439188  0.59333174  0.25673623     0.09900
C1300       C  0.14597226  0.59964797  0.25099739    -0.07200
C1301       C  0.15451894  0.62991463  0.24441759    -0.18400
C1302       C  0.13281081  0.65332370  0.24198581     0.10000
S1303       S  0.10006116  0.55652584  0.26876933    -0.33400
S1304       S  0.14711701  0.68978540  0.22897086    -0.33400
H1305       H  0.12383201  0.69316260  0.20676647     0.28000
H1306       H  0.12257113  0.55300009  0.29174802     0.28000
H1307       H  0.06872541  0.61144385  0.25924246     0.18600
H1308       H  0.17844488  0.63554261  0.24044151     0.18600
C1309       C  0.10333239  0.85122517  0.24754098    -0.07300
C1310       C  0.13020479  0.84730604  0.26499474    -0.18400
C1311       C  0.15294983  0.86991770  0.26604985     0.09900
C1312       C  0.14920947  0.89702369  0.24877845    -0.07200
C1313       C  0.12263047  0.90071683  0.23089530    -0.18400
C1314       C  0.10006294  0.87797934  0.22962433     0.10000
S1315       S  0.18517961  0.86349073  0.29136041    -0.33400
S1316       S  0.06884130  0.88392465  0.20318248    -0.33400
H1317       H  0.06567620  0.85301624  0.19497138     0.28000
H1318       H  0.18592508  0.89372942  0.30235458     0.28000
H1319       H  0.13302427  0.82694281  0.27884517     0.18600
H1320       H  0.11987893  0.92106521  0.21699151     0.18600
C1321       C  0.39746176  0.75245082  0.14832522    -0.07300
C1322       C  0.37240788  0.73223429  0.15095549    -0.18400
C1323       C  0.34977192  0.73036852  0.12815779     0.09900
C1324       C  0.35184493  0.74945175  0.10213959    -0.07200
C1325       C  0.37658686  0.76999145  0.09973073    -0.18400
C1326       C  0.39891084  0.77220013  0.12276837     0.10000
S1327       S  0.31969948  0.70222642  0.13304977    -0.33400
S1328       S  0.42719825  0.80218005  0.11915949    -0.33400
H1329       H  0.42990507  0.80802042  0.15069122     0.28000
H1330       H  0.31747914  0.69443087  0.10192097     0.28000
H1331       H  0.37095784  0.71705034  0.17048965     0.18600
H1332       H  0.37787152  0.78531202  0.08028704     0.18600
C1333       C  0.10377293  0.74991728  0.14923259    -0.07300
C1334       C  0.11646841  0.72236250  0.13854022    -0.18400
C1335       C  0.13797070  0.72208262  0.11450916     0.09900
C1336       C  0.14700773  0.74996760  0.10082137    -0.07200
C1337       C  0.13463311  0.77746382  0.11185640    -0.18400
C1338       C  0.11349028  0.77777307  0.13607196     0.10000
S1339       S  0.15327623  0.68553220  0.10262290    -0.33400
S1340       S  0.10008904  0.81448245  0.14941463    -0.33400
H1341       H  0.09678050  0.80593711  0.18020609     0.28000
H1342       H  0.15863576  0.69344452  0.07193598     0.28000
H1343       H  0.10928379  0.70091565  0.14869309     0.18600
H1344       H  0.14209960  0.79894963  0.10209171     0.18600
C1345       C  0.14642823  0.74929665  0.39868873    -0.07300
C1346       C  0.14750727  0.72674033  0.37585570    -0.18400
C1347       C  0.12496801  0.72558049  0.35288387     0.09900
C1348       C  0.10115437  0.74765280  0.35271124    -0.07200
C1349       C  0.09972883  0.76966186  0.37598673    -0.18400
C1350       C  0.12229567  0.77098273  0.39870165     0.10000
S1351       S  0.12611383  0.69522095  0.32479692    -0.33400
S1352       S  0.11992617  0.80181946  0.42607494    -0.33400
H1353       H  0.15194531  0.80705110  0.42752273     0.28000
H1354       H  0.14693553  0.67633477  0.34075161     0.28000
H1355       H  0.16589006  0.70991980  0.37621606     0.18600
H1356       H  0.08147203  0.78664080  0.37584402     0.18600
C1357       C  0.35179729  0.75213291  0.39732258    -0.07300
C1358       C  0.34869110  0.73280243  0.37185225    -0.18400
C1359       C  0.37195170  0.73061852  0.34976009     0.09900
C1360       C  0.39848360  0.74924022  0.35216714    -0.07200
C1361       C  0.40164618  0.76862876  0.37760976    -0.18400
C1362       C  0.37856178  0.77051715  0.39995797     0.10000
S1363       S  0.36752333  0.70190040  0.32044099    -0.33400
S1364       S  0.38392331  0.79800025  0.43028658    -0.33400
H1365       H  0.35274253  0.80696992  0.43131873     0.28000
H1366       H  0.39888697  0.69342017  0.32007859     0.28000
H1367       H  0.32859212  0.71818295  0.36986697     0.18600
H1368       H  0.42182331  0.78314785  0.37961545     0.18600
C1369       C  0.40151469  0.89613851  0.00243610    -0.07300
C1370       C  0.37284501  0.90044035  0.48355982    -0.18400
C1371       C  0.35025945  0.87782139  0.48068055     0.09900
C1372       C  0.35602378  0.84993352  0.99758446    -0.07200
C1373       C  0.38169193  0.84605983  0.01681202    -0.18400
C1374       C  0.40422592  0.86885049  0.01966207     0.10000
S1375       S  0.31919920  0.88516056  0.45415432    -0.33400
S1376       S  0.43478140  0.86222363  0.04686962    -0.33400
H1377       H  0.43706288  0.89286869  0.05644349     0.28000
H1378       H  0.31681601  0.85476736  0.44383377     0.28000
H1379       H  0.37051827  0.92120142  0.47021151     0.18600
H1380       H  0.38363128  0.82558374  0.03064861     0.18600
C1381       C  0.39379091  0.59906684  0.99952230    -0.07300
C1382       C  0.39702580  0.62435406  0.01905410    -0.18400
C1383       C  0.37442800  0.64708699  0.02057928     0.09900
C1384       C  0.34824035  0.64520785  0.00144274    -0.07200
C1385       C  0.34423717  0.61943104  0.48318927    -0.18400
C1386       C  0.36675889  0.59656974  0.48118981     0.10000
S1387       S  0.37968155  0.67707622  0.04848674    -0.33400
S1388       S  0.35901692  0.56476593  0.45601808    -0.33400
H1389       H  0.38917471  0.56348770  0.44415150     0.28000
H1390       H  0.34821266  0.67957588  0.05597955     0.28000
H1391       H  0.41704215  0.62606779  0.03384282     0.18600
H1392       H  0.32314976  0.61698584  0.47005652     0.18600
C1393       C  0.10654900  0.90279628  0.99349710    -0.07300
C1394       C  0.10253521  0.87686661  0.01187679    -0.18400
C1395       C  0.12523851  0.85445546  0.01399875     0.09900
C1396       C  0.15217002  0.85679835  0.99603430    -0.07200
C1397       C  0.15181465  0.87866558  0.47967704    -0.18400
C1398       C  0.12951164  0.90177251  0.47768164     0.10000
S1399       S  0.11951987  0.82486033  0.04211027    -0.33400
S1400       S  0.13688679  0.93274686  0.45146565    -0.33400
H1401       H  0.10607885  0.93544541  0.44166014     0.28000
H1402       H  0.15056835  0.82427276  0.05162195     0.28000
H1403       H  0.08212106  0.87477007  0.02605266     0.18600
H1404       H  0.17244243  0.88030566  0.46575223     0.18600
C1405       C  0.09906646  0.60652491  0.00344303    -0.07300
C1406       C  0.09662454  0.62945435  0.48216756    -0.18400
C1407       C  0.11959560  0.65185538  0.48113246     0.09900
C1408       C  0.14402408  0.65316040  0.99923398    -0.07200
C1409       C  0.15029479  0.62582299  0.01485665    -0.18400
C1410       C  0.12829705  0.60274819  0.01736128     0.10000
S1411       S  0.11542394  0.68171100  0.45294806    -0.33400
S1412       S  0.13890423  0.56976988  0.03978816    -0.33400
H1413       H  0.11008459  0.56747728  0.05435110     0.28000
H1414       H  0.14699422  0.68345975  0.44567417     0.28000
H1415       H  0.07729945  0.63094118  0.46647776     0.18600
H1416       H  0.17241001  0.62261292  0.02601772     0.18600
C1417       C  0.35216333  0.50138762  0.35132144    -0.07300
C1418       C  0.38067117  0.51532107  0.34514905    -0.18400
C1419       C  0.40338523  0.51774601  0.36765445     0.09900
C1420       C  0.39825192  0.50461601  0.39678246    -0.07200
C1421       C  0.37413965  0.97765923  0.39789755    -0.18400
C1422       C  0.35156583  0.97590039  0.37514431     0.10000
S1423       S  0.43725516  0.53979396  0.35828878    -0.33400
S1424       S  0.32278276  0.94622966  0.37847524    -0.33400
H1425       H  0.32039920  0.94051843  0.34688203     0.28000
H1426       H  0.43831676  0.55482542  0.38675879     0.28000
H1427       H  0.38490588  0.52550641  0.32294909     0.18600
H1428       H  0.37321740  0.96187281  0.41698355     0.18600
C1429       C  0.10168343  0.49959909  0.39751507    -0.07300
C1430       C  0.09775329  0.97971448  0.37190428    -0.18400
C1431       C  0.12042004  0.97683996  0.34917606     0.09900
C1432       C  0.14810005  0.49607930  0.35219644    -0.07200
C1433       C  0.15114739  0.51611240  0.37710190    -0.18400
C1434       C  0.12842276  0.51806416  0.39969495     0.10000
S1435       S  0.11325924  0.94990375  0.31867255    -0.33400
S1436       S  0.13466336  0.54533087  0.43009629    -0.33400
H1437       H  0.10380583  0.55531994  0.43131691     0.28000
H1438       H  0.14421457  0.94075620  0.31532659     0.28000
H1439       H  0.07661060  0.96664632  0.36973527     0.18600
H1440       H  0.17105834  0.53105207  0.37856071     0.18600
C1441       C  0.10327853  0.50234110  0.10232473    -0.07300
C1442       C  0.12797741  0.98439402  0.09902177    -0.18400
C1443       C  0.15010260  0.98128424  0.12199143     0.09900
C1444       C  0.14828078  0.49801762  0.14849172    -0.07200
C1445       C  0.12573679  0.52100234  0.14959549    -0.18400
C1446       C  0.10362943  0.52377607  0.12651230     0.10000
S1447       S  0.17852867  0.95140011  0.11746263    -0.33400
S1448       S  0.07782428  0.55617029  0.12841664    -0.33400
H1449       H  0.07370067  0.55945199  0.09670996     0.28000
H1450       H  0.18054952  0.94412276  0.14874377     0.28000
H1451       H  0.12941370  0.96976551  0.07903463     0.18600
H1452       H  0.12612359  0.53767444  0.16797307     0.18600
C1453       C  0.35254886  0.49908784  0.14670468    -0.07300
C1454       C  0.38333277  0.99103359  0.15459575    -0.18400
C1455       C  0.40594701  0.98674945  0.13220632     0.09900
C1456       C  0.39870488  0.49385788  0.10092031    -0.07200
C1457       C  0.36870603  0.50331813  0.09345539    -0.18400
C1458       C  0.34584878  0.50620935  0.11573287     0.10000
S1459       S  0.44039381  0.96646316  0.14342706    -0.33400
S1460       S  0.30978870  0.52219420  0.10317729    -0.33400
H1461       H  0.30978994  0.54349604  0.12729640     0.28000
H1462       H  0.44225686  0.94921962  0.11626268     0.28000
H1463       H  0.38866916  0.98467621  0.17786857     0.18600
H1464       H  0.36319929  0.50994709  0.07020639     0.18600
C1465       C  0.99852967  0.64964118  0.35341036    -0.07300
C1466       C  0.48013860  0.65212510  0.37641495    -0.18400
C1467       C  0.47793200  0.62939461  0.39890147     0.09900
C1468       C  0.99430415  0.60270716  0.39788680    -0.07200
C1469       C  0.01405793  0.59968466  0.37266281    -0.18400
C1470       C  0.01686722  0.62296820  0.35093245     0.10000
S1471       S  0.44680621  0.63265955  0.42614550    -0.33400
S1472       S  0.04596039  0.61806462  0.32191742    -0.33400
H1473       H  0.05476347  0.64903728  0.32105205     0.28000
H1474       H  0.44198599  0.60105673  0.42968725     0.28000
H1475       H  0.46345063  0.67062177  0.37629481     0.18600
H1476       H  0.02856454  0.57957073  0.37059206     0.18600
C1477       C  0.00146864  0.85312949  0.35118697    -0.07300
C1478       C  0.01868344  0.84840805  0.37799426    -0.18400
C1479       C  0.02024464  0.87077906  0.40086779     0.09900
C1480       C  0.00384045  0.89859346  0.39725109    -0.07200
C1481       C  0.48255581  0.90306832  0.37080589    -0.18400
C1482       C  0.48088563  0.88098985  0.34764951     0.10000
S1483       S  0.04462437  0.86280781  0.43335350    -0.33400
S1484       S  0.45638305  0.88933589  0.31531553    -0.33400
H1485       H  0.44487043  0.85937747  0.31242833     0.28000
H1486       H  0.05624223  0.89277147  0.43552988     0.28000
H1487       H  0.03159855  0.82735263  0.38088119     0.18600
H1488       H  0.46974361  0.92420965  0.36812413     0.18600
C1489       C  0.00581274  0.90027163  0.10279768    -0.07300
C1490       C  0.00292099  0.86953790  0.09382693    -0.18400
C1491       C  0.00348258  0.84557001  0.11497455     0.09900
C1492       C  0.00410706  0.85203629  0.14683182    -0.07200
C1493       C  0.50745834  0.88288609  0.15532266    -0.18400
C1494       C  0.51077928  0.90643748  0.13378910     0.10000
S1495       S  0.00480897  0.80761426  0.09892628    -0.33400
S1496       S  0.52283819  0.94376009  0.14733857    -0.33400
H1497       H  0.52033639  0.93795957  0.17886567     0.28000
H1498       H  0.03248618  0.80012373  0.11406562     0.28000
H1499       H  0.00119703  0.86378597  0.06979932     0.18600
H1500       H  0.50826992  0.88862493  0.17934307     0.18600
C1501       C  0.99858789  0.60241021  0.10354526    -0.07300
C1502       C  0.51996843  0.62726632  0.09926553    -0.18400
C1503       C  0.52151719  0.65023140  0.12172398     0.09900
C1504       C  0.00133835  0.64789058  0.14942667    -0.07200
C1505       C  0.98295344  0.62174434  0.15335936    -0.18400
C1506       C  0.98101031  0.59921386  0.13057530     0.10000
S1507       S  0.54907484  0.68097316  0.11743494    -0.33400
S1508       S  0.95435157  0.56772499  0.13533708    -0.33400
H1509       H  0.94301801  0.57626315  0.16424804     0.28000
H1510       H  0.56147757  0.67154529  0.08923351     0.28000
H1511       H  0.53483651  0.62849558  0.07940374     0.18600
H1512       H  0.96926483  0.61951481  0.17394760     0.18600
O1513       O  0.99933407  0.55048860  0.58588489    -0.87600
O1514       O  0.99908171  0.55216983  0.91474623    -0.87800
O1515       O  0.04677507  0.58874391  0.49999400    -0.89500
O1516       O  0.44736428  0.58603905  0.49813088    -0.88200
O1517       O  0.41080607  0.54809134  0.49817267    -0.87800
O1518       O  0.08516713  0.55245627  0.49977367    -0.89200
O1519       O  0.99630574  0.58912977  0.95205809    -0.87600
O1520       O  0.99676155  0.58780193  0.54918487    -0.87200
Zr1521     Zr  0.99727936  0.56221421  0.49946192     2.84300
O1522       O  0.46853192  0.53114034  0.96832641    -1.09200
O1523       O  0.02978186  0.53248482  0.53008452    -1.09900
C1524       C  0.99769427  0.57867967  0.57731474     1.05500
C1525       C  0.99704025  0.58026437  0.92386206     1.05400
C1526       C  0.07537394  0.58032714  0.50053880     1.08400
C1527       C  0.41918588  0.57639966  0.49766053     1.06200
H1528       H  0.04342053  0.54685520  0.95773838     0.31800
O1529       O  0.03089206  0.53353558  0.97028745    -1.30200
H1530       H  0.45424606  0.54328180  0.54288532     0.31400
O1531       O  0.46756485  0.53102886  0.53013499    -1.31800
O1532       O  0.00491822  0.95289563  0.91278921    -0.87600
O1533       O  0.99855391  0.95058981  0.58619101    -0.89100
O1534       O  0.08873109  0.50455693  0.95201639    -0.87700
O1535       O  0.41346720  0.49979125  0.94845236    -0.87700
O1536       O  0.41193485  0.49640858  0.54767754    -0.87500
O1537       O  0.08715003  0.50326243  0.54898513    -0.87300
O1538       O  0.04996741  0.91442853  0.49729608    -0.87600
O1539       O  0.45126944  0.91219764  0.50257878    -0.87100
O1540       O  0.08727417  0.95168628  0.49680258    -0.88200
O1541       O  0.41312035  0.94858587  0.50045576    -0.87300
O1542       O  0.05136831  0.50268725  0.91483653    -0.87700
O1543       O  0.04981326  0.50344217  0.58621471    -0.87400
O1544       O  0.44927192  0.49854746  0.58471582    -0.87100
O1545       O  0.45103757  0.50235416  0.91148055    -0.87500
O1546       O  0.00518233  0.91552189  0.94962079    -0.87800
O1547       O  0.99891629  0.91341882  0.54950829    -0.89100
Zr1548     Zr  0.00083361  0.50183080  0.93918391     2.83100
Zr1549     Zr  0.99988789  0.50069420  0.56103335     2.83500
Zr1550     Zr  0.06136614  0.50222751  0.49910763     2.84100
Zr1551     Zr  0.43781727  0.49936500  0.49843235     2.83400
Zr1552     Zr  0.99932019  0.93841759  0.49927424     2.84200
O1553       O  0.46830829  0.96916304  0.52968170    -1.09700
O1554       O  0.03344221  0.97228667  0.96918624    -1.09200
C1555       C  0.00597460  0.92458754  0.92149953     1.05500
C1556       C  0.99871538  0.92235669  0.57778384     1.08100
C1557       C  0.07973890  0.50390456  0.92388122     1.05600
C1558       C  0.42263997  0.50152179  0.92036026     1.06000
C1559       C  0.42092322  0.49654155  0.57585389     1.05600
C1560       C  0.07816091  0.50401772  0.57720781     1.05100
C1561       C  0.07830508  0.92354373  0.49612626     1.05600
C1562       C  0.42268747  0.92059048  0.50225290     1.05100
H1563       H  0.04346981  0.95654257  0.54313699     0.31700
O1564       O  0.03045018  0.96918288  0.53044924    -1.30800
H1565       H  0.45784093  0.95605141  0.95598196     0.31800
O1566       O  0.47064086  0.96904130  0.96853053    -1.32200
O1567       O  0.00007525  0.69967155  0.66362176    -0.87600
O1568       O  0.99988165  0.70152882  0.83820640    -0.87800
O1569       O  0.05039875  0.66312362  0.74930439    -0.89500
O1570       O  0.44782194  0.66362993  0.75054299    -0.88200
O1571       O  0.41026133  0.70067187  0.75124273    -0.87800
O1572       O  0.08751827  0.70034409  0.75016170    -0.89200
O1573       O  0.00202176  0.66370442  0.80163517    -0.87600
O1574       O  0.00119518  0.66262661  0.70066350    -0.87200
Zr1575     Zr  0.00068796  0.68794534  0.75102987     2.84300
O1576       O  0.46699604  0.71958590  0.78107515    -1.09200
O1577       O  0.03115944  0.71847297  0.71920994    -1.09900
C1578       C  0.00111906  0.67155312  0.67237039     1.05500
C1579       C  0.00084451  0.67320011  0.82967978     1.05400
C1580       C  0.07868173  0.67215254  0.74936305     1.08400
C1581       C  0.41945316  0.67251628  0.75135532     1.06200
H1582       H  0.04507183  0.70708118  0.79432403     0.31800
O1583       O  0.03192019  0.71945890  0.78156056    -1.30200
H1584       H  0.45350441  0.70658997  0.70614761     0.31400
O1585       O  0.46643239  0.71926946  0.71888478    -1.31800
O1586       O  0.00164062  0.80176322  0.83680001    -0.87600
O1587       O  0.99809037  0.79786521  0.66262308    -0.89100
O1588       O  0.08840289  0.75224837  0.79847715    -0.87700
O1589       O  0.41102491  0.75051864  0.79969185    -0.87700
O1590       O  0.40976467  0.74995020  0.70070253    -0.87500
O1591       O  0.08716866  0.74973699  0.69952847    -0.87300
O1592       O  0.04991086  0.83656028  0.74901657    -0.87600
O1593       O  0.44854310  0.83702767  0.75019523    -0.87100
O1594       O  0.08746198  0.79942465  0.74886162    -0.88200
O1595       O  0.41076013  0.80012634  0.75103909    -0.87300
O1596       O  0.05160444  0.75295543  0.83630912    -0.87700
O1597       O  0.04905631  0.74934910  0.66292207    -0.87400
O1598       O  0.44729784  0.75135951  0.66364492    -0.87100
O1599       O  0.44876288  0.75069993  0.83656406    -0.87500
O1600       O  0.00055585  0.83818123  0.79907608    -0.87800
O1601       O  0.99902350  0.83536708  0.69898491    -0.89100
Zr1602     Zr  0.00096146  0.75111093  0.81226199     2.83100
Zr1603     Zr  0.99909943  0.74900552  0.68885806     2.83500
Zr1604     Zr  0.06209252  0.75004303  0.74948339     2.84100
Zr1605     Zr  0.43592808  0.75042367  0.75007021     2.83400
Zr1606     Zr  0.99952453  0.81161991  0.74965815     2.84200
O1607       O  0.46669909  0.78180734  0.71918016    -1.09700
O1608       O  0.03146012  0.78147672  0.78043123    -1.09200
C1609       C  0.00127465  0.82990546  0.82748981     1.05500
C1610       C  0.99857751  0.82615941  0.67081752     1.08100
C1611       C  0.07978424  0.75298458  0.82670892     1.05600
C1612       C  0.42038737  0.75032050  0.82768868     1.06000
C1613       C  0.41890070  0.75086248  0.67260839     1.05600
C1614       C  0.07757488  0.74964293  0.67155409     1.05100
C1615       C  0.07832700  0.82750746  0.74851606     1.05600
C1616       C  0.42012891  0.82813935  0.75106278     1.05100
H1617       H  0.04318929  0.79326948  0.70557063     0.31700
O1618       O  0.03054959  0.78062797  0.71867139    -1.30800
H1619       H  0.45461183  0.79428717  0.79364051     0.31800
O1620       O  0.46738948  0.78144627  0.78075954    -1.32200
O1621       O  0.33627182  0.00206328  0.69884101    -0.87600
O1622       O  0.16113299  0.99937357  0.70054387    -0.87800
O1623       O  0.24922693  0.95061939  0.66279309    -0.89500
O1624       O  0.24721049  0.55031164  0.66332648    -0.88200
O1625       O  0.24759990  0.58678606  0.70093660    -0.87800
O1626       O  0.25056835  0.91326185  0.69959562    -0.89200
O1627       O  0.19844897  0.00033712  0.66331947    -0.87600
O1628       O  0.29822150  0.00061193  0.66244309    -0.87200
Zr1629     Zr  0.24855688  0.00051077  0.68820424     2.84300
O1630       O  0.21753291  0.53042712  0.71954121    -1.09200
O1631       O  0.28065049  0.96986361  0.71843167    -1.09900
C1632       C  0.32677533  0.00174826  0.67075946     1.05500
C1633       C  0.17009548  0.99959985  0.67229352     1.05400
C1634       C  0.25046323  0.92236624  0.67149005     1.08400
C1635       C  0.24680183  0.57846064  0.67256903     1.06200
H1636       H  0.20523678  0.95571901  0.70595205     0.31800
O1637       O  0.21802423  0.96860521  0.71866648    -1.30200
H1638       H  0.29273507  0.54340616  0.70550184     0.31400
O1639       O  0.28026883  0.53051077  0.71846760    -1.31800
O1640       O  0.16322063  0.99791250  0.80092891    -0.87600
O1641       O  0.33793914  0.99999752  0.79922172    -0.89100
O1642       O  0.20079461  0.91217627  0.75047146    -0.87700
O1643       O  0.19917804  0.58522850  0.75253396    -0.87700
O1644       O  0.29942634  0.58583137  0.74845410    -0.87500
O1645       O  0.29995684  0.91377093  0.74871648    -0.87300
O1646       O  0.24915853  0.94911762  0.83608553    -0.87600
O1647       O  0.25002266  0.54830472  0.83740152    -0.87100
O1648       O  0.25035109  0.91236704  0.79853182    -0.88200
O1649       O  0.25091129  0.58554152  0.80044642    -0.87300
O1650       O  0.16265731  0.94864961  0.75047084    -0.87700
O1651       O  0.33743847  0.95092845  0.74741506    -0.87400
O1652       O  0.33719888  0.54893961  0.74794086    -0.87100
O1653       O  0.16166057  0.54838954  0.75015589    -0.87500
O1654       O  0.20127891  0.99880470  0.83754738    -0.87800
O1655       O  0.30060057  0.99927967  0.83641279    -0.89100
Zr1656     Zr  0.18714171  0.99883197  0.75038187     2.83100
Zr1657     Zr  0.31196589  0.00076659  0.74930391     2.83500
Zr1658     Zr  0.25009528  0.93848408  0.74934401     2.84100
Zr1659     Zr  0.24943212  0.56071136  0.75033122     2.83400
Zr1660     Zr  0.25046209  0.99951820  0.81157892     2.84200
O1661       O  0.28143798  0.52992237  0.78052299    -1.09700
O1662       O  0.21901842  0.96846082  0.78100801    -1.09200
C1663       C  0.17284158  0.99812875  0.82892813     1.05500
C1664       C  0.32897464  0.99908857  0.82747739     1.08100
C1665       C  0.17228033  0.92066353  0.75075435     1.05600
C1666       C  0.17073128  0.57644062  0.75206508     1.06000
C1667       C  0.32785795  0.57702502  0.74757161     1.05600
C1668       C  0.32822537  0.92279708  0.74779692     1.05100
C1669       C  0.24930858  0.92100555  0.82676182     1.05600
C1670       C  0.25077573  0.57654336  0.82861971     1.05100
H1671       H  0.29468609  0.95621179  0.79280233     0.31700
O1672       O  0.28165373  0.96905694  0.78028900    -1.30800
H1673       H  0.20587817  0.54231903  0.79433519     0.31800
O1674       O  0.21855582  0.52970635  0.78127533    -1.32200
O1675       O  0.19657175  0.66689224  0.99927673    -0.87600
O1676       O  0.20420666  0.84052391  0.99650137    -0.87800
O1677       O  0.16104701  0.75034967  0.54932551    -0.89500
O1678       O  0.16340846  0.75585896  0.94847122    -0.88200
O1679       O  0.20125607  0.75218524  0.91183472    -0.87800
O1680       O  0.19865794  0.75058525  0.58643997    -0.89200
O1681       O  0.16568190  0.80452700  0.99659675    -0.87600
O1682       O  0.16027476  0.70510115  0.99864102    -0.87200
Zr1683     Zr  0.18794478  0.75343641  0.99880988     2.84300
O1684       O  0.22067985  0.78240413  0.96793532    -1.09200
O1685       O  0.21734651  0.71956969  0.53081654    -1.09900
C1686       C  0.16845203  0.67670708  0.99876225     1.05500
C1687       C  0.17561538  0.83237814  0.99620736     1.05400
C1688       C  0.17026653  0.75019290  0.57739301     1.08400
C1689       C  0.17291211  0.75484894  0.92045027     1.06200
H1690       H  0.20527858  0.79485427  0.54347496     0.31800
O1691       O  0.21802866  0.78190521  0.53066901    -1.30200
H1692       H  0.20440241  0.70817441  0.95526600     0.31400
O1693       O  0.21779094  0.72064991  0.96829367    -1.31800
O1694       O  0.30326760  0.83620955  0.99752374    -0.87600
O1695       O  0.29649583  0.66181670  0.99971150    -0.89100
O1696       O  0.25100307  0.80033516  0.58595951    -0.87700
O1697       O  0.25179981  0.79917757  0.91170755    -0.87700
O1698       O  0.25015210  0.69932783  0.91297369    -0.87500
O1699       O  0.24841638  0.70075086  0.58687627    -0.87300
O1700       O  0.33669535  0.74952726  0.54907613    -0.87600
O1701       O  0.33818799  0.74923451  0.95071435    -0.87100
O1702       O  0.29899247  0.74959113  0.58604547    -0.88200
O1703       O  0.30082592  0.74958193  0.91345647    -0.87300
O1704       O  0.25084629  0.83768175  0.54913308    -0.87700
O1705       O  0.24792361  0.66369540  0.54980816    -0.87400
O1706       O  0.24788225  0.66273830  0.95048813    -0.87100
O1707       O  0.25230789  0.83688966  0.94834854    -0.87500
O1708       O  0.33959965  0.79805121  0.99950718    -0.87800
O1709       O  0.33514180  0.69777108  0.99993327    -0.89100
Zr1710     Zr  0.25254899  0.81261500  0.99874294     2.83100
Zr1711     Zr  0.24784902  0.68922132  0.99975229     2.83500
Zr1712     Zr  0.24892566  0.75039033  0.56120578     2.84100
Zr1713     Zr  0.25070229  0.74980035  0.93771538     2.83400
Zr1714     Zr  0.31241359  0.74894572  0.99999072     2.84200
O1715       O  0.28080985  0.71835347  0.96897707    -1.09700
O1716       O  0.28056255  0.78070224  0.53020120    -1.09200
C1717       C  0.33138388  0.82648616  0.99803213     1.05500
C1718       C  0.32510580  0.66990790  0.00022120     1.08100
C1719       C  0.25088924  0.82858151  0.57729709     1.05600
C1720       C  0.25219406  0.82747139  0.92029621     1.06000
C1721       C  0.24872675  0.67120880  0.92217825     1.05600
C1722       C  0.24856356  0.67250682  0.57800217     1.05100
C1723       C  0.32737272  0.74918281  0.57715540     1.05600
C1724       C  0.32910798  0.74991677  0.92262000     1.05100
H1725       H  0.29250806  0.70602228  0.54330944     0.31700
O1726       O  0.27983515  0.71886964  0.53056617    -1.30800
H1727       H  0.29583274  0.79263571  0.95552922     0.31800
O1728       O  0.28265541  0.78036482  0.96829475    -1.32200
C1729       C  0.24623893  0.60291418  0.64860982    -0.07300
C1730       C  0.25828444  0.59627030  0.61956006    -0.18400
C1731       C  0.26105760  0.61866070  0.59688396     0.09900
C1732       C  0.24922849  0.64843402  0.60208336    -0.07200
C1733       C  0.23674534  0.65511475  0.63093552    -0.18400
C1734       C  0.23515823  0.63295244  0.65396172     0.10000
S1735       S  0.28208035  0.60806710  0.56290056    -0.33400
S1736       S  0.21637898  0.64414038  0.68862347    -0.33400
H1737       H  0.19799941  0.61757962  0.68902525     0.28000
H1738       H  0.29883717  0.63562407  0.56161939     0.28000
H1739       H  0.26647433  0.57356873  0.61457881     0.18600
H1740       H  0.22725695  0.67762609  0.63542553     0.18600
C1741       C  0.25167974  0.89839365  0.64744860    -0.07300
C1742       C  0.23484886  0.87130310  0.65177307    -0.18400
C1743       C  0.23389377  0.84849829  0.62928293     0.09900
C1744       C  0.25053310  0.85234396  0.60164828    -0.07200
C1745       C  0.26771494  0.87928091  0.59751010    -0.18400
C1746       C  0.26890172  0.90196697  0.62018740     0.10800
S1747       S  0.20959444  0.81586336  0.63671759    -0.33400
S1748       S  0.29429654  0.93399855  0.61368025    -0.33400
H1749       H  0.30441848  0.93614087  0.64420238     0.28000
H1750       H  0.19742971  0.81489128  0.60689986     0.28000
H1751       H  0.22149708  0.86823771  0.67250524     0.18600
H1752       H  0.28114588  0.88228273  0.57682547     0.18600
C1753       C  0.25200127  0.85108194  0.89608633    -0.07300
C1754       C  0.22955759  0.87422273  0.89748280    -0.18400
C1755       C  0.22717707  0.89650909  0.87458872     0.09900
C1756       C  0.24866642  0.89662879  0.85022196    -0.07200
C1757       C  0.27069725  0.87308543  0.84847033    -0.18400
C1758       C  0.27266607  0.85043714  0.87105993     0.10000
S1759       S  0.19506647  0.92278480  0.87714386    -0.33400
S1760       S  0.30265929  0.82202170  0.86701482    -0.33400
H1761       H  0.30825041  0.81832686  0.89845387     0.28000
H1762       H  0.19366065  0.93052578  0.84606845     0.28000
H1763       H  0.21301711  0.87430889  0.91607651     0.18600
H1764       H  0.28709788  0.87280732  0.82975730     0.18600
C1765       C  0.25120937  0.60051711  0.85274895    -0.07300
C1766       C  0.23137331  0.59760322  0.87801328    -0.18400
C1767       C  0.22940304  0.62052172  0.90045737     0.09900
C1768       C  0.24839584  0.64682891  0.89835322    -0.07200
C1769       C  0.26827466  0.64963378  0.87311666    -0.18400
C1770       C  0.27009998  0.62682602  0.85060125     0.10000
S1771       S  0.20081607  0.61559230  0.93005666    -0.33400
S1772       S  0.29807534  0.63208285  0.82048467    -0.33400
H1773       H  0.30667758  0.60107414  0.81873237     0.28000
H1774       H  0.19272175  0.64672060  0.93190260     0.28000
H1775       H  0.21641230  0.57781407  0.87970941     0.18600
H1776       H  0.28321764  0.66942540  0.87133513     0.18600
C1777       C  0.39571957  0.64833929  0.75157785    -0.07300
C1778       C  0.36979720  0.65171689  0.73261313    -0.18400
C1779       C  0.34807569  0.62825849  0.72962693     0.09900
C1780       C  0.35164480  0.60110026  0.74685308    -0.07200
C1781       C  0.37771662  0.59759969  0.76553392    -0.18400
C1782       C  0.39952119  0.62093029  0.76837317     0.10000
S1783       S  0.31747602  0.63370067  0.70211687    -0.33400
S1784       S  0.43072805  0.61480386  0.79503283    -0.33400
H1785       H  0.43129231  0.64516871  0.80572576     0.28000
H1786       H  0.31633385  0.60290342  0.69277215     0.28000
H1787       H  0.36709739  0.67228308  0.71903347     0.18600
H1788       H  0.38052111  0.57697976  0.77901475     0.18600
C1789       C  0.39651536  0.85219424  0.75133784    -0.07300
C1790       C  0.39888887  0.87539158  0.72940991    -0.18400
C1791       C  0.37629913  0.89794577  0.72690529     0.09900
C1792       C  0.35172727  0.89862480  0.74797938    -0.07200
C1793       C  0.34920854  0.87534540  0.76989345    -0.18400
C1794       C  0.37118306  0.85201909  0.77171433     0.10000
S1795       S  0.37880463  0.92316894  0.69464295    -0.33400
S1796       S  0.36565584  0.82323647  0.80075598    -0.33400
H1797       H  0.39716381  0.81822933  0.80653520     0.28000
H1798       H  0.34689555  0.92796712  0.69116637     0.28000
H1799       H  0.41772666  0.87504571  0.71308339     0.18600
H1800       H  0.33015332  0.87554553  0.78596094     0.18600
C1801       C  0.10249977  0.64795702  0.74937966    -0.07300
C1802       C  0.09481147  0.61918875  0.76160246    -0.18400
C1803       C  0.11658204  0.59574406  0.76389355     0.09900
C1804       C  0.14692900  0.60074042  0.75316991    -0.07200
C1805       C  0.15476248  0.62985450  0.74218717    -0.18400
C1806       C  0.13284982  0.65290639  0.73879072     0.10000
S1807       S  0.10460154  0.56118178  0.78299602    -0.33400
S1808       S  0.14480084  0.68692021  0.71868163    -0.33400
H1809       H  0.11762395  0.68885252  0.70113351     0.28000
H1810       H  0.13220804  0.55791273  0.79967780     0.28000
H1811       H  0.07176060  0.61502895  0.77020331     0.18600
H1812       H  0.17812192  0.63460542  0.73551475     0.18600
C1813       C  0.10257781  0.85105147  0.74777406    -0.07300
C1814       C  0.12806088  0.84761345  0.76731851    -0.18400
C1815       C  0.15087416  0.87009772  0.76922112     0.09900
C1816       C  0.14865358  0.89645055  0.75062303    -0.07200
C1817       C  0.12357864  0.89949276  0.73053591    -0.18400
C1818       C  0.10072240  0.87704499  0.72866947     0.10000
S1819       S  0.18110359  0.86452337  0.79704216    -0.33400
S1820       S  0.07055756  0.88267640  0.70072944    -0.33400
H1821       H  0.06527240  0.85157868  0.69466618     0.28000
H1822       H  0.18247142  0.89542702  0.80571458     0.28000
H1823       H  0.12962194  0.82776542  0.78209499     0.18600
H1824       H  0.12213174  0.91925846  0.71564458     0.18600
C1825       C  0.39501822  0.75129304  0.64863888    -0.07300
C1826       C  0.37169000  0.72906873  0.64917771    -0.18400
C1827       C  0.34952440  0.72756844  0.62594334     0.09900
C1828       C  0.35102242  0.74842667  0.60125986    -0.07200
C1829       C  0.37433121  0.77064008  0.60077379    -0.18400
C1830       C  0.39565040  0.77289957  0.62466517     0.10000
S1831       S  0.32009250  0.69850325  0.62917277    -0.33400
S1832       S  0.42135585  0.80532460  0.62463895    -0.33400
H1833       H  0.42207673  0.80893839  0.65662468     0.28000
H1834       H  0.31695330  0.69316796  0.59762677     0.28000
H1835       H  0.37097119  0.71251811  0.66761248     0.18600
H1836       H  0.37490935  0.78737447  0.58249515     0.18600
C1837       C  0.10119389  0.75009277  0.64743104    -0.07300
C1838       C  0.11223211  0.72223430  0.63584163    -0.18400
C1839       C  0.13478771  0.72150690  0.61287662     0.09900
C1840       C  0.14639704  0.74933211  0.60117336    -0.07200
C1841       C  0.13489660  0.77711898  0.61237510    -0.18400
C1842       C  0.11252876  0.77779318  0.63537517     0.10000
S1843       S  0.14703918  0.68440389  0.59916389    -0.33400
S1844       S  0.09897494  0.81460728  0.64808856    -0.33400
H1845       H  0.09856339  0.80678407  0.67925356     0.28000
H1846       H  0.17563234  0.69303332  0.58681987     0.28000
H1847       H  0.10325473  0.70091448  0.64478982     0.18600
H1848       H  0.14365875  0.79847856  0.60345553     0.18600
C1849       C  0.14956277  0.75596310  0.89603232    -0.07300
C1850       C  0.15089965  0.73358798  0.87303790    -0.18400
C1851       C  0.12853215  0.73214274  0.85009099     0.09900
C1852       C  0.10414242  0.75359680  0.85004586    -0.07200
C1853       C  0.10311224  0.77639964  0.87263709    -0.18400
C1854       C  0.12587739  0.77819984  0.89526719     0.10000
S1855       S  0.13202247  0.70184902  0.82218305    -0.33400
S1856       S  0.12413484  0.81012362  0.92144504    -0.33400
H1857       H  0.15615331  0.81245635  0.92623995     0.28000
H1858       H  0.10019670  0.69689206  0.81868684     0.28000
H1859       H  0.16910133  0.71655161  0.87342764     0.18600
H1860       H  0.08487307  0.79339535  0.87215866     0.18600
C1861       C  0.35273455  0.75088628  0.89868864    -0.07300
C1862       C  0.34795530  0.73306110  0.87244530    -0.18400
C1863       C  0.36988687  0.73188885  0.84924326     0.09900
C1864       C  0.39684921  0.74983122  0.85172621    -0.07200
C1865       C  0.40156161  0.76788749  0.87786506    -0.18400
C1866       C  0.37976544  0.76876029  0.90128968     0.10000
S1867       S  0.36297937  0.70544095  0.81829571    -0.33400
S1868       S  0.38723885  0.79410469  0.93301504    -0.33400
H1869       H  0.35661509  0.80458262  0.93513941     0.28000
H1870       H  0.39379820  0.69540585  0.81645506     0.28000
H1871       H  0.32744733  0.71898856  0.87050117     0.18600
H1872       H  0.42207564  0.78195670  0.87975154     0.18600
C1873       C  0.39882822  0.89630664  0.50232220    -0.07300
C1874       C  0.37593290  0.89988709  0.98310167    -0.18400
C1875       C  0.35358074  0.87705156  0.98005726     0.09900
C1876       C  0.35315101  0.85029837  0.49743719    -0.07200
C1877       C  0.37939888  0.84583917  0.51576355    -0.18400
C1878       C  0.40184357  0.86864505  0.51891562     0.10000
S1879       S  0.32359502  0.88338901  0.95210576    -0.33400
S1880       S  0.43227564  0.86173474  0.54619238    -0.33400
H1881       H  0.43368004  0.89212792  0.55671158     0.28000
H1882       H  0.32195282  0.85268131  0.94267751     0.28000
H1883       H  0.37391444  0.92037905  0.96928843     0.18600
H1884       H  0.38171984  0.82498106  0.52896526     0.18600
C1885       C  0.39473454  0.59991273  0.49757439    -0.07300
C1886       C  0.39927719  0.62614185  0.51554011    -0.18400
C1887       C  0.37666224  0.64876741  0.51779197     0.09900
C1888       C  0.34913742  0.64594825  0.50071082    -0.07200
C1889       C  0.34444344  0.61949623  0.98253975    -0.18400
C1890       C  0.36700898  0.59660045  0.98112411     0.10000
S1891       S  0.38354888  0.67953531  0.54443884    -0.33400
S1892       S  0.36105446  0.56598433  0.95406938    -0.33400
H1893       H  0.39199161  0.56482633  0.94441500     0.28000
H1894       H  0.35274919  0.68136181  0.55444082     0.28000
H1895       H  0.42024108  0.62855473  0.52887202     0.18600
H1896       H  0.32433546  0.61782061  0.96786454     0.18600
C1897       C  0.10219787  0.89948649  0.49528116    -0.07300
C1898       C  0.09787674  0.87386644  0.51405974    -0.18400
C1899       C  0.12037530  0.85117569  0.51651027     0.09900
C1900       C  0.14749380  0.85313917  0.49868444    -0.07200
C1901       C  0.15628369  0.88257478  0.97728012    -0.18400
C1902       C  0.13374257  0.90557606  0.97573523     0.10000
S1903       S  0.11406749  0.82180917  0.54469050    -0.33400
S1904       S  0.14060756  0.93705220  0.94995867    -0.33400
H1905       H  0.10955154  0.94052929  0.94122441     0.28000
H1906       H  0.14526731  0.81986510  0.55337393     0.28000
H1907       H  0.07735322  0.87219387  0.52814283     0.18600
H1908       H  0.17684514  0.88449909  0.96330258     0.18600
C1909       C  0.09895336  0.60450394  0.50214173    -0.07300
C1910       C  0.09259752  0.63403187  0.98800572    -0.18400
C1911       C  0.11478282  0.65712766  0.98536036     0.09900
C1912       C  0.14531858  0.64968438  0.50093745    -0.07200
C1913       C  0.14751731  0.62484295  0.52112380    -0.18400
C1914       C  0.12442351  0.60255313  0.52228958     0.10000
S1915       S  0.10485237  0.69002128  0.96245884    -0.33400
S1916       S  0.12801238  0.57313918  0.55101684    -0.33400
H1917       H  0.09615212  0.57053458  0.55652241     0.28000
H1918       H  0.13369638  0.69162783  0.94773285     0.28000
H1919       H  0.07049047  0.63711261  0.97679951     0.18600
H1920       H  0.16691183  0.62327556  0.53672641     0.18600
C1921       C  0.35354953  0.49755986  0.84993633    -0.07300
C1922       C  0.37646391  0.52017100  0.84875760    -0.18400
C1923       C  0.39878953  0.52269099  0.87175832     0.09900
C1924       C  0.39864713  0.50168813  0.89639313    -0.07200
C1925       C  0.37099970  0.98412419  0.90262776    -0.18400
C1926       C  0.34875386  0.98199919  0.87950430     0.10000
S1927       S  0.42568837  0.55406017  0.86878893    -0.33400
S1928       S  0.31650986  0.95682536  0.88640370    -0.33400
H1929       H  0.31568991  0.94513687  0.85640897     0.28000
H1930       H  0.43107363  0.55711514  0.90026373     0.28000
H1931       H  0.37635398  0.53666292  0.83024898     0.18600
H1932       H  0.36766508  0.97129510  0.92357373     0.18600
C1933       C  0.10369101  0.50348176  0.89989126    -0.07300
C1934       C  0.10059204  0.98381896  0.87525654    -0.18400
C1935       C  0.12269393  0.98058100  0.85234048     0.09900
C1936       C  0.14880315  0.49890893  0.85346563    -0.07200
C1937       C  0.15339784  0.51819808  0.87881441    -0.18400
C1938       C  0.13102970  0.52102301  0.90173886     0.10000
S1939       S  0.11552767  0.95208854  0.82330028    -0.33400
S1940       S  0.13789294  0.54872225  0.93158446    -0.33400
H1941       H  0.10728311  0.55954819  0.93214464     0.28000
H1942       H  0.14656040  0.94371963  0.81920483     0.28000
H1943       H  0.08026075  0.96938445  0.87462105     0.18600
H1944       H  0.17406999  0.53208359  0.88019708     0.18600
C1945       C  0.10215757  0.50427828  0.60128308    -0.07300
C1946       C  0.12766864  0.98532291  0.59742377    -0.18400
C1947       C  0.14991429  0.98287535  0.62046575     0.09900
C1948       C  0.14582030  0.49814342  0.64890959    -0.07200
C1949       C  0.12076028  0.51821237  0.65194855    -0.18400
C1950       C  0.09920971  0.52181001  0.62839245     0.10000
S1951       S  0.18158179  0.95688690  0.61369402    -0.33400
S1952       S  0.06951809  0.55025742  0.63394256    -0.33400
H1953       H  0.06741897  0.55881043  0.60304462     0.28000
H1954       H  0.18261666  0.94577542  0.64387433     0.28000
H1955       H  0.13063455  0.97217768  0.57659261     0.18600
H1956       H  0.11863548  0.53214682  0.67236745     0.18600
C1957       C  0.35057964  0.49984593  0.64568478    -0.07300
C1958       C  0.37964686  0.98920063  0.65276124    -0.18400
C1959       C  0.40168598  0.98471427  0.62988222     0.09900
C1960       C  0.39673283  0.49544098  0.59983879    -0.07200
C1961       C  0.36719675  0.50668638  0.59286811    -0.18400
C1962       C  0.34430327  0.50907301  0.61524360     0.10000
S1963       S  0.43413910  0.96068450  0.63921731    -0.33400
S1964       S  0.30878503  0.52689998  0.60382352    -0.33400
H1965       H  0.30840205  0.54588235  0.62984988     0.28000
H1966       H  0.43539369  0.94636212  0.61038328     0.28000
H1967       H  0.38484357  0.98153395  0.67564017     0.18600
H1968       H  0.36213211  0.51486353  0.57001490     0.18600
C1969       C  0.00042233  0.64974087  0.85409878    -0.07300
C1970       C  0.47665461  0.65109340  0.87636532    -0.18400
C1971       C  0.47464824  0.62817972  0.89869787     0.09900
C1972       C  0.99673771  0.60414542  0.89993988    -0.07200
C1973       C  0.02188225  0.60518987  0.87976445    -0.18400
C1974       C  0.02431964  0.62800943  0.85746411     0.10000
S1975       S  0.44412346  0.63158647  0.92662518    -0.33400
S1976       S  0.05939487  0.62917299  0.83537736    -0.33400
H1977       H  0.05956907  0.66100720  0.83115190     0.28000
H1978       H  0.44005728  0.60013434  0.93163661     0.28000
H1979       H  0.46066426  0.67016339  0.87718264     0.18600
H1980       H  0.04043360  0.58869317  0.88216361     0.18600
C1981       C  0.00226280  0.85450416  0.85131134    -0.07300
C1982       C  0.01939691  0.84951421  0.87822100    -0.18400
C1983       C  0.02188891  0.87202662  0.90104634     0.09900
C1984       C  0.00693565  0.90064818  0.89720967    -0.07200
C1985       C  0.48239169  0.90257562  0.87191845    -0.18400
C1986       C  0.47993640  0.87979622  0.84946787     0.10000
S1987       S  0.04515476  0.86288513  0.93404871    -0.33400
S1988       S  0.45187610  0.88568309  0.81952678    -0.33400
H1989       H  0.44280139  0.85484728  0.81776689     0.28000
H1990       H  0.05853865  0.89211810  0.93623806     0.28000
H1991       H  0.03139635  0.82798092  0.88136708     0.18600
H1992       H  0.46790998  0.92273953  0.87019610     0.18600
C1993       C  0.99872735  0.89829590  0.60222947    -0.07300
C1994       C  0.99867926  0.86738258  0.59324751    -0.18400
C1995       C  0.99968967  0.84352549  0.61453029     0.09900
C1996       C  0.99869643  0.85011541  0.64634745    -0.07200
C1997       C  0.50295539  0.88320951  0.65570729    -0.18400
C1998       C  0.50567566  0.90679309  0.63408068     0.10000
S1999       S  0.00397867  0.80560720  0.59887485    -0.33400
S2000       S  0.51370996  0.94498793  0.64807505    -0.33400
H2001       H  0.52121977  0.93690583  0.67830793     0.28000
H2002       H  0.03203441  0.80047209  0.61433371     0.28000
H2003       H  0.99893821  0.86146638  0.56918703     0.18600
H2004       H  0.50310079  0.88912940  0.67972538     0.18600
C2005       C  0.99756599  0.60236914  0.60169347    -0.07300
C2006       C  0.51388392  0.62994977  0.59687646    -0.18400
C2007       C  0.51518559  0.65311859  0.61909826     0.09900
C2008       C  0.00126071  0.64781389  0.64792099    -0.07200
C2009       C  0.98583420  0.62009596  0.65326919    -0.18400
C2010       C  0.98359076  0.59748107  0.63055495     0.10000
S2011       S  0.53868069  0.68648070  0.61170900    -0.33400
S2012       S  0.96128601  0.56336173  0.63834921    -0.33400
H2013       H  0.95058521  0.57192030  0.66748523     0.28000
H2014       H  0.55718579  0.67306248  0.58889763     0.28000
H2015       H  0.52627892  0.63288838  0.57557596     0.18600
H2016       H  0.97484004  0.61645336  0.67518779     0.18600
O2017       O  0.50089020  0.05061204  0.08651541    -0.87600
O2018       O  0.49823439  0.05022648  0.41173236    -0.87800
O2019       O  0.55093861  0.08745778  0.00157722    -0.89500
O2020       O  0.94877746  0.08686089  0.99979515    -0.88200
O2021       O  0.91229742  0.04879592  0.99862124    -0.87800
O2022       O  0.58906352  0.05097637  0.99984661    -0.89200
O2023       O  0.49654157  0.08740107  0.44884896    -0.87600
O2024       O  0.49984403  0.08803260  0.04976510    -0.87200
Zr2025     Zr  0.50045743  0.06261838  0.99991322     2.84300
O2026       O  0.96803342  0.03094761  0.46870891    -1.09200
O2027       O  0.53290098  0.03247168  0.03011442    -1.09900
C2028       C  0.49989531  0.07885203  0.07788390     1.05500
C2029       C  0.49670129  0.07843096  0.42069862     1.05400
C2030       C  0.57950995  0.07884418  0.00137869     1.08400
C2031       C  0.92065114  0.07715679  0.99883769     1.06200
H2032       H  0.54315849  0.04538184  0.45460000     0.31800
O2033       O  0.53046344  0.03243050  0.46737621    -1.30200
H2034       H  0.95596769  0.04410371  0.04355663     0.31400
O2035       O  0.96913997  0.03170074  0.03080973    -1.31800
O2036       O  0.50217441  0.45258435  0.41135371    -0.87600
O2037       O  0.50266565  0.45092841  0.08475696    -0.89100
O2038       O  0.58754057  0.00102070  0.44892022    -0.87700
O2039       O  0.91180039  0.00033479  0.44837914    -0.87700
O2040       O  0.91433216  0.00040319  0.04938075    -0.87500
O2041       O  0.59008892  0.00126337  0.04750028    -0.87300
O2042       O  0.55334496  0.41645351  0.99681405    -0.87600
O2043       O  0.95231342  0.41279214  0.00198242    -0.87100
O2044       O  0.58965179  0.45461932  0.99740961    -0.88200
O2045       O  0.91398475  0.44902070  0.00150591    -0.87300
O2046       O  0.55029842  0.99814573  0.41165283    -0.87700
O2047       O  0.55286404  0.00225329  0.08486708    -0.87400
O2048       O  0.95194567  0.00143428  0.08634930    -0.87100
O2049       O  0.94991957  0.00060703  0.41192969    -0.87500
O2050       O  0.50361684  0.41491224  0.44796978    -0.87800
O2051       O  0.50484482  0.41376660  0.04807112    -0.89100
Zr2052     Zr  0.50001729  0.00020803  0.43692251     2.83100
Zr2053     Zr  0.50238575  0.00106375  0.06081148     2.83500
Zr2054     Zr  0.56366722  0.00180481  0.99845418     2.84100
Zr2055     Zr  0.93926228  0.99989006  0.99930046     2.83400
Zr2056     Zr  0.50231218  0.43928893  0.99826040     2.84200
O2057       O  0.96990764  0.46952407  0.03161975    -1.09700
O2058       O  0.53155102  0.47123035  0.46823365    -1.09200
C2059       C  0.50372927  0.42433477  0.41990732     1.05500
C2060       C  0.50454330  0.42272350  0.07632398     1.08100
C2061       C  0.57867880  0.99920076  0.42072488     1.05600
C2062       C  0.92140844  0.00092082  0.42041678     1.06000
C2063       C  0.92361126  0.00095431  0.07750021     1.05600
C2064       C  0.58113604  0.00203986  0.07563556     1.05100
C2065       C  0.58145897  0.42622474  0.99654124     1.05600
C2066       C  0.92370992  0.42108008  0.00235525     1.05100
H2067       H  0.54616218  0.45862320  0.04181175     0.31700
O2068       O  0.53274555  0.47099049  0.02927437    -1.30800
H2069       H  0.95586832  0.45547257  0.45619991     0.31800
O2070       O  0.96859210  0.46852566  0.46875576    -1.32200
O2071       O  0.50042812  0.20017648  0.16334196    -0.87600
O2072       O  0.50123173  0.20158858  0.33730293    -0.87800
O2073       O  0.54927277  0.16370640  0.24834452    -0.89500
O2074       O  0.94973988  0.16296259  0.25251512    -0.88200
O2075       O  0.91216600  0.19999296  0.25105637    -0.87800
O2076       O  0.58651855  0.20070505  0.24915534    -0.89200
O2077       O  0.50117899  0.16420869  0.30031117    -0.87600
O2078       O  0.49950763  0.16316813  0.20049299    -0.87200
Zr2079     Zr  0.49924806  0.18897086  0.25023747     2.84300
O2080       O  0.96783076  0.21888602  0.28187327    -1.09200
O2081       O  0.53018082  0.21925504  0.21862267    -1.09900
C2082       C  0.50062684  0.17204951  0.17227665     1.05500
C2083       C  0.50157856  0.17333203  0.32845850     1.05400
C2084       C  0.57771721  0.17256617  0.24820012     1.08400
C2085       C  0.92138701  0.17196903  0.25220066     1.06200
H2086       H  0.54429685  0.20718702  0.29297568     0.31800
O2087       O  0.53114879  0.21995302  0.28043553    -1.30200
H2088       H  0.95555250  0.20549650  0.20703827     0.31400
O2089       O  0.96826082  0.21836782  0.21979223    -1.31800
O2090       O  0.50237994  0.30197679  0.33612817    -0.87600
O2091       O  0.49923722  0.29915010  0.16211988    -0.89100
O2092       O  0.58831186  0.25133627  0.29749733    -0.87700
O2093       O  0.91101094  0.24785249  0.29966220    -0.87700
O2094       O  0.91200343  0.24989564  0.20043343    -0.87500
O2095       O  0.58669560  0.24869700  0.19876542    -0.87300
O2096       O  0.54986846  0.33697372  0.24981223    -0.87600
O2097       O  0.94818504  0.33592426  0.25026747    -0.87100
O2098       O  0.58743436  0.30012260  0.24748634    -0.88200
O2099       O  0.91082363  0.29870301  0.25153581    -0.87300
O2100       O  0.55158345  0.25044694  0.33517768    -0.87700
O2101       O  0.54864034  0.24949706  0.16211558    -0.87400
O2102       O  0.94955742  0.25018007  0.16344021    -0.87100
O2103       O  0.94854562  0.24931886  0.33673564    -0.87500
O2104       O  0.50081668  0.33845864  0.29834983    -0.87800
O2105       O  0.50127509  0.33666033  0.19842453    -0.89100
Zr2106     Zr  0.50075079  0.25136210  0.31172309     2.83100
Zr2107     Zr  0.49869951  0.25000088  0.18807005     2.83500
Zr2108     Zr  0.56172306  0.25051159  0.24867271     2.84100
Zr2109     Zr  0.93704971  0.24954711  0.25036656     2.83400
Zr2110     Zr  0.49989659  0.31229187  0.24901718     2.84200
O2111       O  0.96778455  0.28066849  0.21933906    -1.09700
O2112       O  0.53147659  0.28187228  0.27999709    -1.09200
C2113       C  0.50170762  0.33005174  0.32667205     1.05500
C2114       C  0.50109975  0.32742688  0.17022812     1.08100
C2115       C  0.57982744  0.25063307  0.32574044     1.05600
C2116       C  0.92020877  0.24818130  0.32775821     1.06000
C2117       C  0.92108030  0.25049300  0.17229786     1.05600
C2118       C  0.57714804  0.24894209  0.17079856     1.05100
C2119       C  0.57823225  0.32825416  0.24824296     1.05600
C2120       C  0.91983694  0.32682658  0.25144212     1.05100
H2121       H  0.54337618  0.29371785  0.20484803     0.31700
O2122       O  0.53055932  0.28124897  0.21783360    -1.30800
H2123       H  0.95450430  0.29330783  0.29425437     0.31800
O2124       O  0.96755545  0.28070899  0.28156343    -1.32200
O2125       O  0.83802663  0.50015200  0.20102150    -0.87600
O2126       O  0.66287586  0.49959873  0.19796344    -0.87800
O2127       O  0.75271013  0.45127825  0.16192229    -0.89500
O2128       O  0.74649025  0.05030949  0.16182806    -0.88200
O2129       O  0.74673980  0.08705007  0.19924777    -0.87800
O2130       O  0.75241751  0.41419240  0.19898442    -0.89200
O2131       O  0.70095747  0.49950819  0.16145663    -0.87600
O2132       O  0.80065538  0.49855674  0.16401082    -0.87200
Zr2133     Zr  0.75029636  0.50072524  0.18774843     2.84300
O2134       O  0.71935160  0.03091936  0.21783031    -1.09200
O2135       O  0.78136310  0.47006272  0.21890329    -1.09900
C2136       C  0.82901240  0.49949284  0.17280760     1.05500
C2137       C  0.67245772  0.49911893  0.16995782     1.05400
C2138       C  0.75337085  0.42311605  0.17083063     1.08400
C2139       C  0.74532773  0.07841841  0.17096117     1.06200
H2140       H  0.70599374  0.45642553  0.20452216     0.31800
O2141       O  0.71851312  0.46936155  0.21745299    -1.30200
H2142       H  0.79352572  0.04540214  0.20491188     0.31400
O2143       O  0.78116673  0.03214198  0.21762409    -1.31800
O2144       O  0.66131339  0.49958963  0.29789402    -0.87600
O2145       O  0.83561573  0.50124898  0.30150055    -0.89100
O2146       O  0.69979678  0.41389802  0.24872040    -0.87700
O2147       O  0.69950048  0.08650886  0.25097658    -0.87700
O2148       O  0.79933955  0.08801686  0.24797583    -0.87500
O2149       O  0.79929450  0.41335685  0.25058002    -0.87300
O2150       O  0.74445536  0.44995197  0.33523081    -0.87600
O2151       O  0.75101414  0.04877930  0.33689306    -0.87100
O2152       O  0.74645815  0.41313798  0.29783243    -0.88200
O2153       O  0.75088308  0.08631470  0.30025363    -0.87300
O2154       O  0.66212614  0.45074111  0.25012973    -0.87700
O2155       O  0.83696667  0.45032557  0.25110036    -0.87400
O2156       O  0.83713573  0.05111274  0.24801379    -0.87100
O2157       O  0.66286497  0.04898170  0.24817141    -0.87500
O2158       O  0.69840295  0.50093820  0.33541452    -0.87800
O2159       O  0.79725585  0.49971713  0.33768556    -0.89100
Zr2160     Zr  0.68728798  0.50041202  0.24829217     2.83100
Zr2161     Zr  0.81202086  0.50068587  0.25059421     2.83500
Zr2162     Zr  0.74970602  0.43908224  0.24884808     2.84100
Zr2163     Zr  0.74973842  0.06209165  0.24932614     2.83400
Zr2164     Zr  0.74843355  0.50040438  0.31090809     2.84200
O2165       O  0.78160073  0.03139922  0.27965761    -1.09700
O2166       O  0.71804568  0.46964096  0.27937288    -1.09200
C2167       C  0.67017919  0.49992652  0.32613950     1.05500
C2168       C  0.82580041  0.50020623  0.32944934     1.08100
C2169       C  0.67139751  0.42264581  0.25016738     1.05600
C2170       C  0.67122311  0.07724356  0.25017450     1.06000
C2171       C  0.82777161  0.07916533  0.24766139     1.05600
C2172       C  0.82769024  0.42216455  0.25091475     1.05100
C2173       C  0.74419569  0.42180320  0.32597258     1.05600
C2174       C  0.75148390  0.07710515  0.32844698     1.05100
H2175       H  0.79279701  0.45652674  0.29388978     0.31700
O2176       O  0.78039710  0.46945511  0.28081309    -1.30800
H2177       H  0.70575100  0.04298309  0.29277739     0.31800
O2178       O  0.71878606  0.03064145  0.27978817    -1.32200
O2179       O  0.69929032  0.16439447  0.50206070    -0.87600
O2180       O  0.69996604  0.33850406  0.49668477    -0.87800
O2181       O  0.66072851  0.25160586  0.04765400    -0.89500
O2182       O  0.66263093  0.25080856  0.44942460    -0.88200
O2183       O  0.70020041  0.25075386  0.41256308    -0.87800
O2184       O  0.69744844  0.24947323  0.08559605    -0.89200
O2185       O  0.66251013  0.30140208  0.49664831    -0.87600
O2186       O  0.66195387  0.20162459  0.49976234    -0.87200
Zr2187     Zr  0.68738371  0.25139868  0.49924377     2.84300
O2188       O  0.71874729  0.28157598  0.46805478    -1.09200
O2189       O  0.71762160  0.22034303  0.02997779    -1.09900
C2190       C  0.67093404  0.17344276  0.50084188     1.05500
C2191       C  0.67162805  0.32954849  0.49633460     1.05400
C2192       C  0.66928306  0.25012072  0.07595941     1.08400
C2193       C  0.67177487  0.25117391  0.42136164     1.06200
H2194       H  0.70503474  0.29541674  0.04242795     0.31800
O2195       O  0.71814377  0.28241580  0.03008267    -1.30200
H2196       H  0.70537055  0.20662891  0.45611718     0.31400
O2197       O  0.71828364  0.21974516  0.46882742    -1.31800
O2198       O  0.80030477  0.33746213  0.49740498    -0.87600
O2199       O  0.79894811  0.16399736  0.49934379    -0.89100
O2200       O  0.74751189  0.30095584  0.08649887    -0.87700
O2201       O  0.74740377  0.29960508  0.41175915    -0.87700
O2202       O  0.75017703  0.19943866  0.41355728    -0.87500
O2203       O  0.74746952  0.20122350  0.08699442    -0.87300
O2204       O  0.83588745  0.24910034  0.05144819    -0.87600
O2205       O  0.83796997  0.25214107  0.45130659    -0.87100
O2206       O  0.79763165  0.25059921  0.08776853    -0.88200
O2207       O  0.80055444  0.25050280  0.41406241    -0.87300
O2208       O  0.74980617  0.33779092  0.04923160    -0.87700
O2209       O  0.74703493  0.16467596  0.04949755    -0.87400
O2210       O  0.74976688  0.16325480  0.45148936    -0.87100
O2211       O  0.74691668  0.33767516  0.44796321    -0.87500
O2212       O  0.83743574  0.30005179  0.49961245    -0.87800
O2213       O  0.83659543  0.20096320  0.49932439    -0.89100
Zr2214     Zr  0.74968728  0.31318193  0.49831091     2.83100
Zr2215     Zr  0.74927488  0.18980541  0.50066022     2.83500
Zr2216     Zr  0.74819133  0.25095961  0.06154908     2.84100
Zr2217     Zr  0.74995101  0.25009578  0.43794139     2.83400
Zr2218     Zr  0.81160858  0.25107789  0.50051256     2.84200
O2219       O  0.78093083  0.21977473  0.46955580    -1.09700
O2220       O  0.78096273  0.28114232  0.03145491    -1.09200
C2221       C  0.82861374  0.32816335  0.49795095     1.05500
C2222       C  0.82734154  0.17284973  0.49907307     1.08100
C2223       C  0.74833272  0.32908673  0.07745069     1.05600
C2224       C  0.74650884  0.32805579  0.41996889     1.06000
C2225       C  0.74985519  0.17136667  0.42307220     1.05600
C2226       C  0.74728856  0.17310741  0.07773371     1.05100
C2227       C  0.82616384  0.24940839  0.07937462     1.05600
C2228       C  0.82887999  0.25162333  0.42316325     1.05100
H2229       H  0.79240381  0.20668694  0.04465820     0.31700
O2230       O  0.78008959  0.21960395  0.03163910    -1.30800
H2231       H  0.79378466  0.29420167  0.45541132     0.31800
O2232       O  0.78104219  0.28163378  0.46833903    -1.32200
C2233       C  0.74330805  0.10250813  0.14688359    -0.07300
C2234       C  0.75460459  0.09584029  0.11754249    -0.18400
C2235       C  0.75765684  0.11847573  0.09520415     0.09900
C2236       C  0.74700635  0.14857012  0.10121903    -0.07200
C2237       C  0.73425740  0.15493241  0.13003018    -0.18400
C2238       C  0.73193561  0.13234123  0.15254493     0.10000
S2239       S  0.77738462  0.10759642  0.06051314    -0.33400
S2240       S  0.71172005  0.14260971  0.18683444    -0.33400
H2241       H  0.69522949  0.11488943  0.18821740     0.28000
H2242       H  0.79637948  0.13372017  0.06030846     0.28000
H2243       H  0.76216005  0.07292355  0.11214883     0.18600
H2244       H  0.72505892  0.17749582  0.13482830     0.18600
C2245       C  0.75379319  0.39894600  0.14704595    -0.07300
C2246       C  0.73532686  0.37298466  0.15166909    -0.18400
C2247       C  0.73201954  0.35060070  0.12904393     0.09900
C2248       C  0.74852858  0.35331733  0.10125484    -0.07200
C2249       C  0.76718317  0.37921787  0.09668232    -0.18400
C2250       C  0.77034653  0.40173569  0.11929350     0.10800
S2251       S  0.70454969  0.32051049  0.13630434    -0.33400
S2252       S  0.79729910  0.43229888  0.11196826    -0.33400
H2253       H  0.80777775  0.43449140  0.14235501     0.28000
H2254       H  0.69324147  0.31975889  0.10614368     0.28000
H2255       H  0.72214735  0.37076440  0.17261836     0.18600
H2256       H  0.78034294  0.38142203  0.07572304     0.18600
C2257       C  0.74525442  0.35151085  0.39532845    -0.07300
C2258       C  0.72473209  0.37636662  0.39802593    -0.18400
C2259       C  0.72282243  0.39900156  0.37527387     0.09900
C2260       C  0.74229327  0.39726015  0.34934404    -0.07200
C2261       C  0.76189459  0.37186909  0.34616776    -0.18400
C2262       C  0.76406403  0.34950946  0.36896270     0.10000
S2263       S  0.69433959  0.42876300  0.38011127    -0.33400
S2264       S  0.79330465  0.32051853  0.36415839    -0.33400
H2265       H  0.80242646  0.32035904  0.39504332     0.28000
H2266       H  0.68807297  0.43215391  0.34876349     0.28000
H2267       H  0.70972727  0.37792270  0.41778086     0.18600
H2268       H  0.77699771  0.37026410  0.32646833     0.18600
C2269       C  0.75254455  0.10077040  0.35312326    -0.07300
C2270       C  0.73576171  0.09601006  0.38026940    -0.18400
C2271       C  0.73426257  0.11843670  0.40329489     0.09900
C2272       C  0.75002401  0.14662884  0.39948188    -0.07200
C2273       C  0.76744789  0.15096649  0.37271111    -0.18400
C2274       C  0.76955692  0.12822918  0.35011276     0.10000
S2275       S  0.71064271  0.11004087  0.43622366    -0.33400
S2276       S  0.79630906  0.13472685  0.31920289    -0.33400
H2277       H  0.80621008  0.10410276  0.31721184     0.28000
H2278       H  0.69713876  0.13930024  0.43757300     0.28000
H2279       H  0.72289215  0.07496815  0.38322991     0.18600
H2280       H  0.78058397  0.17185846  0.36985607     0.18600
C2281       C  0.89737043  0.14837128  0.25218746    -0.07300
C2282       C  0.87242705  0.15194136  0.23202920    -0.18400
C2283       C  0.84979474  0.12942991  0.22931460     0.09900
C2284       C  0.85171443  0.10294262  0.24773457    -0.07200
C2285       C  0.87666364  0.09942193  0.26791000    -0.18400
C2286       C  0.89924757  0.12197218  0.27067695     0.10000
S2287       S  0.82016840  0.13531306  0.20087197    -0.33400
S2288       S  0.92877491  0.11630611  0.29927937    -0.33400
H2289       H  0.93118774  0.14731077  0.30754238     0.28000
H2290       H  0.81740725  0.10430726  0.19270586     0.28000
H2291       H  0.87111225  0.17198513  0.21749032     0.18600
H2292       H  0.87799962  0.07938276  0.28244286     0.18600
C2293       C  0.89595945  0.35078135  0.25236189    -0.07300
C2294       C  0.89902284  0.37543136  0.23222886    -0.18400
C2295       C  0.87687645  0.39850906  0.23100793     0.09900
C2296       C  0.85132406  0.39781200  0.25094782    -0.07200
C2297       C  0.84808848  0.37303178  0.27113170    -0.18400
C2298       C  0.87024863  0.34967762  0.27228330     0.10000
S2299       S  0.88167972  0.42694315  0.20196666    -0.33400
S2300       S  0.86505822  0.32005243  0.30052708    -0.33400
H2301       H  0.89661861  0.31637295  0.30708899     0.28000
H2302       H  0.85010236  0.42969767  0.19495743     0.28000
H2303       H  0.91837053  0.37619571  0.21651634     0.18600
H2304       H  0.82857024  0.37224756  0.28661794     0.18600
C2305       C  0.60194379  0.14844706  0.24765248    -0.07300
C2306       C  0.59351846  0.11826997  0.25500941    -0.18400
C2307       C  0.61535615  0.09483871  0.25721015     0.09900
C2308       C  0.64680871  0.10117858  0.25108943    -0.07200
C2309       C  0.65524742  0.13146843  0.24439516    -0.18400
C2310       C  0.63338909  0.15468506  0.24134935     0.10000
S2311       S  0.60135110  0.05808726  0.26975164    -0.33400
S2312       S  0.64739216  0.19080779  0.22703500    -0.33400
H2313       H  0.62366959  0.19370671  0.20522577     0.28000
H2314       H  0.62501032  0.05400674  0.29146620     0.28000
H2315       H  0.56964443  0.11277386  0.25973579     0.18600
H2316       H  0.67916758  0.13717749  0.24057587     0.18600
C2317       C  0.60200777  0.35247399  0.24779893    -0.07300
C2318       C  0.63023554  0.34693208  0.26255140    -0.18400
C2319       C  0.65256341  0.36982524  0.26515074     0.09900
C2320       C  0.64750139  0.39859777  0.25119974    -0.07200
C2321       C  0.61921239  0.40422080  0.23669634    -0.18400
C2322       C  0.59658748  0.38164009  0.23472893     0.10000
S2323       S  0.68560506  0.36169339  0.28886810    -0.33400
S2324       S  0.56205364  0.39141137  0.21395750    -0.33400
H2325       H  0.56058073  0.36331188  0.19830553     0.28000
H2326       H  0.68577317  0.39080540  0.30263832     0.28000
H2327       H  0.63436973  0.32506172  0.27348208     0.18600
H2328       H  0.61497519  0.42615051  0.22592104     0.18600
C2329       C  0.89669731  0.25112541  0.14852389    -0.07300
C2330       C  0.86974657  0.23386183  0.15325735    -0.18400
C2331       C  0.84641873  0.23251941  0.13114223     0.09900
C2332       C  0.84990613  0.24894542  0.10350825    -0.07200
C2333       C  0.87664421  0.26633927  0.09888682    -0.18400
C2334       C  0.89956863  0.26821878  0.12122057     0.10000
S2335       S  0.81355896  0.20848158  0.13915788    -0.33400
S2336       S  0.93037457  0.29484681  0.11419737    -0.33400
H2337       H  0.93363766  0.30414745  0.14482013     0.28000
H2338       H  0.81114322  0.19685762  0.10923245     0.28000
H2339       H  0.86712940  0.22067733  0.17407626     0.18600
H2340       H  0.87914545  0.27967753  0.07813568     0.18600
C2341       C  0.60084365  0.24949443  0.14677074    -0.07300
C2342       C  0.61440683  0.22191281  0.13733280    -0.18400
C2343       C  0.63629322  0.22133096  0.11372675     0.09900
C2344       C  0.64495031  0.24899298  0.09940212    -0.07200
C2345       C  0.63167290  0.27655668  0.10921634    -0.18400
C2346       C  0.60996414  0.27714844  0.13287810     0.10000
S2347       S  0.65262666  0.18472382  0.10338809    -0.33400
S2348       S  0.59530643  0.31394047  0.14480456    -0.33400
H2349       H  0.59215062  0.30660543  0.17592417     0.28000
H2350       H  0.66004102  0.19200590  0.07297502     0.28000
H2351       H  0.60770793  0.20068181  0.14823794     0.18600
H2352       H  0.63899081  0.29791075  0.09909910     0.18600
C2353       C  0.64798573  0.25162286  0.39715946    -0.07300
C2354       C  0.65476877  0.23739912  0.36912064    -0.18400
C2355       C  0.63329359  0.23675181  0.34521993     0.09900
C2356       C  0.60407928  0.25059031  0.34950456    -0.07200
C2357       C  0.59741675  0.26496511  0.37746208    -0.18400
C2358       C  0.61901121  0.26599723  0.40118041     0.10000
S2359       S  0.64317446  0.21659178  0.31039731    -0.33400
S2360       S  0.60957230  0.28727364  0.43549724    -0.33400
H2361       H  0.58049877  0.29810388  0.42608460     0.28000
H2362       H  0.67478725  0.21266702  0.31667417     0.28000
H2363       H  0.67684198  0.22614794  0.36614927     0.18600
H2364       H  0.57525848  0.27601712  0.38051824     0.18600
C2365       C  0.85251791  0.25152371  0.39904894    -0.07300
C2366       C  0.84908386  0.23052515  0.37498850    -0.18400
C2367       C  0.87088769  0.22848944  0.35158648     0.09900
C2368       C  0.89667157  0.24822536  0.35194952    -0.07200
C2369       C  0.90013923  0.26920845  0.37603213    -0.18400
C2370       C  0.87814703  0.27146998  0.39925369     0.10000
S2371       S  0.86506728  0.19933658  0.32293404    -0.33400
S2372       S  0.88314124  0.30156758  0.42706180    -0.33400
H2373       H  0.85151265  0.30818305  0.42992147     0.28000
H2374       H  0.89654632  0.19250933  0.31916816     0.28000
H2375       H  0.82956161  0.21501914  0.37481209     0.18600
H2376       H  0.91962814  0.28475847  0.37615809     0.18600
C2377       C  0.89999415  0.39678396  0.00293194    -0.07300
C2378       C  0.87422712  0.40014819  0.48111337    -0.18400
C2379       C  0.85097018  0.37816000  0.47919673     0.09900
C2380       C  0.85386815  0.35113247  0.00057036    -0.07200
C2381       C  0.88007171  0.34732535  0.01908061    -0.18400
C2382       C  0.90302488  0.36980256  0.02058298     0.10000
S2383       S  0.81988021  0.38528823  0.45263376    -0.33400
S2384       S  0.93479794  0.36301673  0.04635305    -0.33400
H2385       H  0.93739374  0.39358357  0.05609920     0.28000
H2386       H  0.81689142  0.35467432  0.44318071     0.28000
H2387       H  0.87251619  0.42049926  0.46705686     0.18600
H2388       H  0.88230473  0.32702486  0.03313428     0.18600
C2389       C  0.89624958  0.10071424  0.99896371    -0.07300
C2390       C  0.90054671  0.12654177  0.01757999    -0.18400
C2391       C  0.87807654  0.14934098  0.01974066     0.09900
C2392       C  0.85066497  0.14678396  0.00240859    -0.07200
C2393       C  0.84929637  0.12543086  0.47671458    -0.18400
C2394       C  0.87159951  0.10222943  0.47518680     0.10000
S2395       S  0.88531522  0.18030402  0.04609454    -0.33400
S2396       S  0.86813540  0.07480161  0.44442881    -0.33400
H2397       H  0.89952318  0.06723287  0.44225202     0.28000
H2398       H  0.85453157  0.18284367  0.05604548     0.28000
H2399       H  0.92132775  0.12864003  0.03124415     0.18600
H2400       H  0.83072813  0.12572635  0.46008275     0.18600
C2401       C  0.60584502  0.40254197  0.99598859    -0.07300
C2402       C  0.60015247  0.37517605  0.01179318    -0.18400
C2403       C  0.62215789  0.35195165  0.01316575     0.09900
C2404       C  0.65016694  0.35506334  0.99698309    -0.07200
C2405       C  0.65278590  0.37973263  0.47765495    -0.18400
C2406       C  0.63083483  0.40318079  0.47614763     0.10000
S2407       S  0.61415906  0.32029065  0.03828731    -0.33400
S2408       S  0.63810368  0.43423186  0.45001232    -0.33400
H2409       H  0.60726946  0.43695381  0.44032288     0.28000
H2410       H  0.64455734  0.31861359  0.04952811     0.28000
H2411       H  0.57879303  0.37231426  0.02437725     0.18600
H2412       H  0.67353778  0.38148630  0.46394329     0.18600
C2413       C  0.60311148  0.10299282  0.00198889    -0.07300
C2414       C  0.59861240  0.12835530  0.48136011    -0.18400
C2415       C  0.62166081  0.15069797  0.47983106     0.09900
C2416       C  0.64789745  0.14947999  0.99899463    -0.07200
C2417       C  0.65266877  0.12364442  0.01746928    -0.18400
C2418       C  0.63057526  0.10051076  0.01933196     0.10000
S2419       S  0.61851088  0.17890282  0.44987408    -0.33400
S2420       S  0.63830615  0.06936115  0.04528410    -0.33400
H2421       H  0.60756550  0.06643988  0.05506369     0.28000
H2422       H  0.65038125  0.18072981  0.44398515     0.28000
H2423       H  0.57962277  0.12922132  0.46522884     0.18600
H2424       H  0.67342719  0.12184331  0.03122445     0.18600
C2425       C  0.85309487  0.99867186  0.34942717    -0.07300
C2426       C  0.87868557  0.01807007  0.34662696    -0.18400
C2427       C  0.90087724  0.01988533  0.36972910     0.09900
C2428       C  0.89785148  0.00142630  0.39611602    -0.07200
C2429       C  0.86806247  0.48393970  0.40392397    -0.18400
C2430       C  0.84570784  0.48211627  0.38090532     0.10000
S2431       S  0.93149594  0.04736864  0.36477363    -0.33400
S2432       S  0.81482268  0.45493520  0.38634204    -0.33400
H2433       H  0.81345418  0.44562780  0.35555254     0.28000
H2434       H  0.93223683  0.05637011  0.39563285     0.28000
H2435       H  0.88084831  0.03274966  0.32677157     0.18600
H2436       H  0.86551963  0.46986851  0.42417132     0.18600
C2437       C  0.60292059  0.99855004  0.39683164    -0.07300
C2438       C  0.59851495  0.48170664  0.37250624    -0.18400
C2439       C  0.62051000  0.48008342  0.34918191     0.09900
C2440       C  0.64828449  0.99611469  0.35030784    -0.07200
C2441       C  0.64982821  0.01824233  0.37351986    -0.18400
C2442       C  0.62737221  0.01993380  0.39644062     0.10000
S2443       S  0.61465686  0.45170842  0.31970873    -0.33400
S2444       S  0.63040128  0.05100851  0.42346356    -0.33400
H2445       H  0.59845263  0.05620899  0.42595386     0.28000
H2446       H  0.64603893  0.44510983  0.31500675     0.28000
H2447       H  0.57890023  0.46633033  0.37186885     0.18600
H2448       H  0.66816415  0.03510653  0.37318904     0.18600
C2449       C  0.60509148  0.00223038  0.09934810    -0.07300
C2450       C  0.62906556  0.48362141  0.09603525    -0.18400
C2451       C  0.65161876  0.48119967  0.11878506     0.09900
C2452       C  0.64931564  0.99818306  0.14617968    -0.07200
C2453       C  0.62569185  0.02000944  0.14773830    -0.18400
C2454       C  0.60362221  0.02231766  0.12464033     0.10000
S2455       S  0.68255727  0.45422706  0.11238354    -0.33400
S2456       S  0.57468399  0.05180982  0.12863716    -0.33400
H2457       H  0.57155022  0.05791490  0.09723901     0.28000
H2458       H  0.68528217  0.44514682  0.14311719     0.28000
H2459       H  0.63096184  0.46947621  0.07573651     0.18600
H2460       H  0.62486598  0.03590493  0.16677301     0.18600
C2461       C  0.85375743  0.00670523  0.14679088    -0.07300
C2462       C  0.88260329  0.48888424  0.15550705    -0.18400
C2463       C  0.90496550  0.48513817  0.13287406     0.09900
C2464       C  0.89990893  0.00204131  0.10154422    -0.07200
C2465       C  0.87406627  0.02080374  0.09696766    -0.18400
C2466       C  0.85138073  0.02380435  0.11946394     0.10000
S2467       S  0.93953551  0.46501520  0.14368404    -0.33400
S2468       S  0.82167742  0.05165828  0.11272909    -0.33400
H2469       H  0.81780131  0.05984728  0.14361163     0.28000
H2470       H  0.94119090  0.44798728  0.11638285     0.28000
H2471       H  0.88835214  0.48280156  0.17870330     0.18600
H2472       H  0.87206485  0.03408360  0.07612213     0.18600
C2473       C  0.50165290  0.14944698  0.35250455    -0.07300
C2474       C  0.97742457  0.15073178  0.37768904    -0.18400
C2475       C  0.97532746  0.12793040  0.40012222     0.09900
C2476       C  0.49635456  0.10248672  0.39682893    -0.07200
C2477       C  0.51669879  0.09946672  0.37205113    -0.18400
C2478       C  0.52018500  0.12287298  0.35051782     0.10000
S2479       S  0.94588675  0.13237865  0.42895527    -0.33400
S2480       S  0.55056318  0.11841217  0.32277962    -0.33400
H2481       H  0.55751106  0.14973969  0.32027868     0.28000
H2482       H  0.94072217  0.10098987  0.43309755     0.28000
H2483       H  0.96152011  0.16987584  0.37841272     0.18600
H2484       H  0.53127046  0.07936180  0.37034166     0.18600
C2485       C  0.50203172  0.35458889  0.35015460    -0.07300
C2486       C  0.52395614  0.35310572  0.37381454    -0.18400
C2487       C  0.52608317  0.37622936  0.39599060     0.09900
C2488       C  0.50496036  0.40090383  0.39545906    -0.07200
C2489       C  0.98049742  0.40093444  0.37240818    -0.18400
C2490       C  0.97827767  0.37775246  0.35037673     0.10000
S2491       S  0.55734379  0.37384297  0.42318256    -0.33400
S2492       S  0.94981093  0.38227916  0.32058015    -0.33400
H2493       H  0.94103786  0.35129429  0.32030693     0.28000
H2494       H  0.56109296  0.40560123  0.42668640     0.28000
H2495       H  0.54023358  0.33426629  0.37445805     0.18600
H2496       H  0.96574082  0.42086640  0.37038074     0.18600
C2497       C  0.50589028  0.39875616  0.10081680    -0.07300
C2498       C  0.50508182  0.36777336  0.09217812    -0.18400
C2499       C  0.50526700  0.34415265  0.11378384     0.09900
C2500       C  0.50349585  0.35116013  0.14552602    -0.07200
C2501       C  0.00572546  0.38168190  0.15635974    -0.18400
C2502       C  0.00772998  0.40562041  0.13508445     0.10000
S2503       S  0.50904276  0.30597520  0.09856232    -0.33400
S2504       S  0.01645279  0.44348560  0.14948794    -0.33400
H2505       H  0.02611243  0.43466653  0.17887758     0.28000
H2506       H  0.53454277  0.29869307  0.11709264     0.28000
H2507       H  0.50510291  0.36161921  0.06817373     0.18600
H2508       H  0.00608204  0.38731441  0.18042214     0.18600
C2509       C  0.49933279  0.10259890  0.10211726    -0.07300
C2510       C  0.01934489  0.12719927  0.10123275    -0.18400
C2511       C  0.02086468  0.14969929  0.12405870     0.09900
C2512       C  0.50141228  0.14814256  0.14816386    -0.07200
C2513       C  0.48261645  0.12222094  0.15156247    -0.18400
C2514       C  0.48105417  0.09965222  0.12873528     0.10000
S2515       S  0.04840659  0.18051729  0.12035158    -0.33400
S2516       S  0.45396785  0.06846937  0.13288046    -0.33400
H2517       H  0.44442240  0.07539053  0.16284539     0.28000
H2518       H  0.06440492  0.16866566  0.09498351     0.28000
H2519       H  0.03391864  0.12906903  0.08120897     0.18600
H2520       H  0.46832281  0.12020452  0.17176603     0.18600
O2521       O  0.49658647  0.05001398  0.58570675    -0.87600
O2522       O  0.50034849  0.05165367  0.91350783    -0.87800
O2523       O  0.54812689  0.08849440  0.49999608    -0.89500
O2524       O  0.94798581  0.08673016  0.49947167    -0.88200
O2525       O  0.91067690  0.04946383  0.49706173    -0.87800
O2526       O  0.58629108  0.05196433  0.50037778    -0.89200
O2527       O  0.50017791  0.08874115  0.95076334    -0.87600
O2528       O  0.49684133  0.08724348  0.54880018    -0.87200
Zr2529     Zr  0.49819137  0.06236007  0.49855568     2.84300
O2530       O  0.96971720  0.03224222  0.96926939    -1.09200
O2531       O  0.52996929  0.03235977  0.52956454    -1.09900
C2532       C  0.49605367  0.07816141  0.57697792     1.05500
C2533       C  0.50001754  0.07986951  0.92257451     1.05400
C2534       C  0.57671860  0.07993526  0.50094901     1.08400
C2535       C  0.91969989  0.07766882  0.49762055     1.06200
H2536       H  0.54461254  0.04567153  0.95540989     0.31800
O2537       O  0.53197006  0.03268848  0.96815389    -1.30200
H2538       H  0.95343301  0.04310902  0.54322020     0.31400
O2539       O  0.96664439  0.03074336  0.53045928    -1.31800
O2540       O  0.50195006  0.45180237  0.91120694    -0.87600
O2541       O  0.50116956  0.45123429  0.58593198    -0.89100
O2542       O  0.58819803  0.00163627  0.94832236    -0.87700
O2543       O  0.91449409  0.00115283  0.94895199    -0.87700
O2544       O  0.91114250  0.99762462  0.54804840    -0.87500
O2545       O  0.58661959  0.00183790  0.54886346    -0.87300
O2546       O  0.55171202  0.41587306  0.49577118    -0.87600
O2547       O  0.95226759  0.41165736  0.50041292    -0.87100
O2548       O  0.58891834  0.45325479  0.49628265    -0.88200
O2549       O  0.91395036  0.44796057  0.50044086    -0.87300
O2550       O  0.55047037  0.00022070  0.91143454    -0.87700
O2551       O  0.54876392  0.00275052  0.58554565    -0.87400
O2552       O  0.94851012  0.99680096  0.58535901    -0.87100
O2553       O  0.95229260  0.00451740  0.91230788    -0.87500
O2554       O  0.50362612  0.41447462  0.94810713    -0.87800
O2555       O  0.50300543  0.41428949  0.54890877    -0.89100
Zr2556     Zr  0.50093915  0.00107662  0.93774857     2.83100
Zr2557     Zr  0.49899505  0.00091742  0.55996629     2.83500
Zr2558     Zr  0.56174920  0.00195764  0.49867460     2.84100
Zr2559     Zr  0.93649132  0.99963516  0.49846280     2.83400
Zr2560     Zr  0.50102127  0.43916726  0.49845807     2.84200
O2561       O  0.96938518  0.46853693  0.53093194    -1.09700
O2562       O  0.53289794  0.47128664  0.96771954    -1.09200
C2563       C  0.50333664  0.42354731  0.91995526     1.05500
C2564       C  0.50273129  0.42306488  0.57727508     1.08100
C2565       C  0.57891106  0.00075281  0.92027158     1.05600
C2566       C  0.92379442  0.00346704  0.92091267     1.06000
C2567       C  0.92024063  0.99638134  0.57615410     1.05600
C2568       C  0.57725516  0.00270657  0.57694644     1.05100
C2569       C  0.57998149  0.42510467  0.49503349     1.05600
C2570       C  0.92369431  0.42004181  0.50063678     1.05100
H2571       H  0.54494421  0.45774086  0.54232230     0.31700
O2572       O  0.53175056  0.47031529  0.52976752    -1.30800
H2573       H  0.95742449  0.45657759  0.95631203     0.31800
O2574       O  0.96992709  0.46954441  0.96917627    -1.32200
O2575       O  0.49795555  0.19982799  0.66255418    -0.87600
O2576       O  0.50236714  0.20049452  0.83628743    -0.87800
O2577       O  0.55023942  0.16321231  0.74519300    -0.89500
O2578       O  0.94915075  0.16333580  0.75599249    -0.88200
O2579       O  0.91229086  0.20101410  0.75401090    -0.87800
O2580       O  0.58749148  0.20011527  0.74769496    -0.89200
O2581       O  0.50347754  0.16291348  0.79950995    -0.87600
O2582       O  0.49811620  0.16244759  0.69934594    -0.87200
Zr2583     Zr  0.50011918  0.18775828  0.74935798     2.84300
O2584       O  0.96836759  0.22057241  0.78200209    -1.09200
O2585       O  0.53051232  0.21856409  0.71765281    -1.09900
C2586       C  0.49808213  0.17158836  0.67118631     1.05500
C2587       C  0.50353320  0.17223695  0.82763329     1.05400
C2588       C  0.57866604  0.17202367  0.74581023     1.08400
C2589       C  0.92092038  0.17280972  0.75632873     1.06200
H2590       H  0.54516207  0.20614994  0.79214144     0.31800
O2591       O  0.53182872  0.21881195  0.77975511    -1.30200
H2592       H  0.95401137  0.20588151  0.70720479     0.31400
O2593       O  0.96719651  0.21867313  0.71957728    -1.31800
O2594       O  0.50258371  0.30052646  0.83604015    -0.87600
O2595       O  0.49839408  0.29875122  0.66223879    -0.89100
O2596       O  0.58843872  0.24978678  0.79733305    -0.87700
O2597       O  0.91203319  0.25143343  0.80008741    -0.87700
O2598       O  0.91135297  0.25239228  0.70125647    -0.87500
O2599       O  0.58618167  0.24885416  0.69764632    -0.87300
O2600       O  0.55011469  0.33639174  0.74937445    -0.87600
O2601       O  0.94971443  0.33707157  0.74770615    -0.87100
O2602       O  0.58753681  0.29918039  0.74806814    -0.88200
O2603       O  0.91214033  0.30000480  0.74987349    -0.87300
O2604       O  0.55188432  0.25032486  0.83527386    -0.87700
O2605       O  0.54788063  0.25065074  0.66124264    -0.87400
O2606       O  0.94841090  0.25373932  0.66377321    -0.87100
O2607       O  0.94976323  0.25255083  0.83694198    -0.87500
O2608       O  0.50017195  0.33736028  0.79868518    -0.87800
O2609       O  0.49973535  0.33610234  0.69871327    -0.89100
Zr2610     Zr  0.50135129  0.25023362  0.81113570     2.83100
Zr2611     Zr  0.49836552  0.24951526  0.68776506     2.83500
Zr2612     Zr  0.56202797  0.24963439  0.74805856     2.84100
Zr2613     Zr  0.93740289  0.25073434  0.75057831     2.83400
Zr2614     Zr  0.49985404  0.31152808  0.74912151     2.84200
O2615       O  0.96821961  0.28129218  0.71922199    -1.09700
O2616       O  0.53187740  0.28096949  0.77955937    -1.09200
C2617       C  0.50133019  0.32866910  0.82692187     1.05500
C2618       C  0.49935853  0.32700397  0.67049456     1.08100
C2619       C  0.58006799  0.24997761  0.82568370     1.05600
C2620       C  0.92136384  0.25168670  0.82811762     1.06000
C2621       C  0.92013900  0.25420414  0.67309648     1.05600
C2622       C  0.57641926  0.24987459  0.66974670     1.05100
C2623       C  0.57848793  0.32733231  0.74851234     1.05600
C2624       C  0.92138470  0.32798364  0.74883719     1.05100
H2625       H  0.54302016  0.29324361  0.70479608     0.31700
O2626       O  0.53036632  0.28052835  0.71774067    -1.30800
H2627       H  0.95570119  0.29577234  0.79315969     0.31800
O2628       O  0.96843702  0.28272540  0.78063779    -1.32200
O2629       O  0.83698924  0.50190459  0.70003469    -0.87600
O2630       O  0.66279877  0.49714715  0.70023797    -0.87800
O2631       O  0.75095626  0.45116197  0.66275018    -0.89500
O2632       O  0.74737803  0.05206135  0.66349375    -0.88200
O2633       O  0.74746331  0.08814792  0.70140537    -0.87800
O2634       O  0.75033339  0.41321814  0.69907669    -0.89200
O2635       O  0.69999653  0.49678445  0.66287551    -0.87600
O2636       O  0.79920857  0.50133541  0.66338606    -0.87200
Zr2637     Zr  0.74941124  0.50017053  0.68880542     2.84300
O2638       O  0.71849016  0.03104270  0.71894978    -1.09200
O2639       O  0.78141441  0.46889511  0.71862501    -1.09900
C2640       C  0.82767867  0.50230834  0.67196065     1.05500
C2641       C  0.67168651  0.49622685  0.67197545     1.05400
C2642       C  0.75081897  0.42288313  0.67112152     1.08400
C2643       C  0.74658554  0.08012460  0.67298932     1.06200
H2644       H  0.70629416  0.45520129  0.70643504     0.31800
O2645       O  0.71900335  0.46814672  0.71916893    -1.30200
H2646       H  0.79391385  0.04526753  0.70582609     0.31400
O2647       O  0.78141560  0.03197321  0.71837677    -1.31800
O2648       O  0.66350399  0.49907624  0.80070564    -0.87600
O2649       O  0.83826045  0.49961471  0.79952202    -0.89100
O2650       O  0.70131527  0.41158086  0.75020673    -0.87700
O2651       O  0.69919727  0.08513339  0.75346252    -0.87700
O2652       O  0.79882781  0.08770768  0.75086840    -0.87500
O2653       O  0.80063785  0.41266856  0.74896044    -0.87300
O2654       O  0.75100979  0.44811904  0.83588308    -0.87600
O2655       O  0.75305295  0.04933208  0.83654291    -0.87100
O2656       O  0.75138859  0.41111747  0.79862679    -0.88200
O2657       O  0.75308865  0.08691943  0.79996198    -0.87300
O2658       O  0.66340303  0.44826286  0.75127718    -0.87700
O2659       O  0.83801809  0.44993133  0.74784476    -0.87400
O2660       O  0.83701573  0.05124771  0.75108620    -0.87100
O2661       O  0.66233533  0.04790691  0.74972034    -0.87500
O2662       O  0.70130045  0.49941697  0.83764131    -0.87800
O2663       O  0.80118306  0.49794129  0.83701511    -0.89100
Zr2664     Zr  0.68786126  0.49834863  0.75050809     2.83100
Zr2665     Zr  0.81226799  0.49970568  0.74989378     2.83500
Zr2666     Zr  0.75076748  0.43752901  0.74952222     2.84100
Zr2667     Zr  0.74971551  0.06141610  0.75034891     2.83400
Zr2668     Zr  0.75095146  0.49858706  0.81197839     2.84200
O2669       O  0.78199190  0.03077162  0.78024250    -1.09700
O2670       O  0.71953299  0.46761897  0.78119630    -1.09200
C2671       C  0.67289321  0.49948247  0.82876147     1.05500
C2672       C  0.82948528  0.49837463  0.82775628     1.08100
C2673       C  0.67286618  0.42023045  0.75112229     1.05600
C2674       C  0.67088278  0.07605664  0.75213985     1.06000
C2675       C  0.82733018  0.07926475  0.75142122     1.05600
C2676       C  0.82888287  0.42176725  0.74801376     1.05100
C2677       C  0.75104259  0.41995638  0.82683353     1.05600
C2678       C  0.75396809  0.07768487  0.82801407     1.05100
H2679       H  0.79521620  0.45519596  0.79318903     0.31700
O2680       O  0.78208319  0.46802542  0.78073740    -1.30800
H2681       H  0.70614168  0.04218192  0.79413577     0.31800
O2682       O  0.71897522  0.02986730  0.78094697    -1.32200
O2683       O  0.69982591  0.16438390  0.99953161    -0.87600
O2684       O  0.70213637  0.33897167  0.99742204    -0.87800
O2685       O  0.66146134  0.25102705  0.54869307    -0.89500
O2686       O  0.66351366  0.25248936  0.94824063    -0.88200
O2687       O  0.70171817  0.25152706  0.91190700    -0.87800
O2688       O  0.69846988  0.25068756  0.58642645    -0.89200
O2689       O  0.66412624  0.30248019  0.99617231    -0.87600
O2690       O  0.66251960  0.20171536  0.99875476    -0.87200
Zr2691     Zr  0.68766342  0.25165139  0.99843364     2.84300
O2692       O  0.72008557  0.28159997  0.96803183    -1.09200
O2693       O  0.71808546  0.22120184  0.53103401    -1.09900
C2694       C  0.67156949  0.17352463  0.99900138     1.05500
C2695       C  0.67365279  0.33052472  0.99666523     1.05400
C2696       C  0.67025196  0.25034645  0.57690373     1.08400
C2697       C  0.67313827  0.25264063  0.92030357     1.06200
H2698       H  0.70475311  0.29616484  0.54208867     0.31800
O2699       O  0.71798136  0.28319283  0.52981002    -1.30200
H2700       H  0.70591685  0.20684434  0.95502236     0.31400
O2701       O  0.71877487  0.21976793  0.96818927    -1.31800
O2702       O  0.80127238  0.33668014  0.00102780    -0.87600
O2703       O  0.79861836  0.16271705  0.00157549    -0.89100
O2704       O  0.74673338  0.30391545  0.58495321    -0.87700
O2705       O  0.75412205  0.29903876  0.91242740    -0.87700
O2706       O  0.75271948  0.19926939  0.91352483    -0.87500
O2707       O  0.74981924  0.20304946  0.58761013    -0.87300
O2708       O  0.83634898  0.25218049  0.55090087    -0.87600
O2709       O  0.83852569  0.25030109  0.95158596    -0.87100
O2710       O  0.79843097  0.25392866  0.58760995    -0.88200
O2711       O  0.80153759  0.24992992  0.91393283    -0.87300
O2712       O  0.74889889  0.34032010  0.54709921    -0.87700
O2713       O  0.74882262  0.16587489  0.55073621    -0.87400
O2714       O  0.75100104  0.16262788  0.95097271    -0.87100
O2715       O  0.75284338  0.33642131  0.94932063    -0.87500
O2716       O  0.83837162  0.29916480  0.00163486    -0.87800
O2717       O  0.83660187  0.19924719  0.00119824    -0.89100
Zr2718     Zr  0.75097165  0.31211910  0.99959394     2.83100
Zr2719     Zr  0.74945453  0.18928111  0.99989231     2.83500
Zr2720     Zr  0.74882082  0.25280175  0.56165939     2.84100
Zr2721     Zr  0.75132570  0.24973765  0.93809885     2.83400
Zr2722     Zr  0.81227140  0.24968678  0.00103153     2.84200
O2723       O  0.78199428  0.21874978  0.96930820    -1.09700
O2724       O  0.78052321  0.28309554  0.53055260    -1.09200
C2725       C  0.82957686  0.32742921  0.00112971     1.05500
C2726       C  0.82711562  0.17121767  0.00183072     1.08100
C2727       C  0.74724695  0.33194333  0.57538731     1.05600
C2728       C  0.75432334  0.32724522  0.92121617     1.06000
C2729       C  0.75197926  0.17113347  0.92271760     1.05600
C2730       C  0.74968786  0.17471407  0.57885424     1.05100
C2731       C  0.82689663  0.25305307  0.57896009     1.05600
C2732       C  0.82973962  0.25059643  0.92332028     1.05100
H2733       H  0.79311193  0.20830650  0.54464421     0.31700
O2734       O  0.78030607  0.22086568  0.53175448    -1.30800
H2735       H  0.79544340  0.29318055  0.95704149     0.31800
O2736       O  0.78217108  0.28066628  0.96941698    -1.32200
C2737       C  0.74575068  0.10476843  0.64922225    -0.07300
C2738       C  0.75526866  0.09739012  0.61941075    -0.18400
C2739       C  0.75826490  0.11961235  0.59663979     0.09900
C2740       C  0.74992282  0.15042261  0.60283383    -0.07200
C2741       C  0.73981333  0.15780946  0.63246528    -0.18400
C2742       C  0.73733104  0.13556299  0.65539672     0.10000
S2743       S  0.77469663  0.10688663  0.56091961    -0.33400
S2744       S  0.72107319  0.14795009  0.69113842    -0.33400
H2745       H  0.70077925  0.12287902  0.69270632     0.28000
H2746       H  0.79580034  0.13130600  0.55925596     0.28000
H2747       H  0.76149864  0.07407846  0.61382702     0.18600
H2748       H  0.73272460  0.18101452  0.63768014     0.18600
C2749       C  0.75057836  0.39982365  0.64652647    -0.07300
C2750       C  0.72699084  0.37788227  0.64643833    -0.18400
C2751       C  0.72439304  0.35653888  0.62269788     0.09900
C2752       C  0.74638844  0.35636933  0.59882868    -0.07200
C2753       C  0.76943476  0.37892047  0.59844632    -0.18400
C2754       C  0.77196519  0.40043360  0.62208939     0.10800
S2755       S  0.69178513  0.33100184  0.62352299    -0.33400
S2756       S  0.80379226  0.42706081  0.62023023    -0.33400
H2757       H  0.80665316  0.43187537  0.65183171     0.28000
H2758       H  0.68854360  0.32888975  0.59157926     0.28000
H2759       H  0.70990428  0.37795813  0.66455219     0.18600
H2760       H  0.78637969  0.37900739  0.58021433     0.18600
C2761       C  0.75529216  0.35107629  0.89720350    -0.07300
C2762       C  0.73687134  0.37717539  0.90116366    -0.18400
C2763       C  0.73430323  0.39933172  0.87831137     0.09900
C2764       C  0.75111725  0.39599228  0.85077853    -0.07200
C2765       C  0.76973996  0.36992807  0.84679541    -0.18400
C2766       C  0.77252968  0.34784037  0.86987043     0.10000
S2767       S  0.70771592  0.43036446  0.88517473    -0.33400
S2768       S  0.80004529  0.31738947  0.86386189    -0.33400
H2769       H  0.80960090  0.31585624  0.89458263     0.28000
H2770       H  0.69645122  0.43123057  0.85500122     0.28000
H2771       H  0.72333063  0.37981242  0.92184386     0.18600
H2772       H  0.78322918  0.36736661  0.82607535     0.18600
C2773       C  0.75509128  0.10137024  0.85246268    -0.07300
C2774       C  0.73556003  0.09791035  0.87784921    -0.18400
C2775       C  0.73384728  0.12019001  0.90086673     0.09900
C2776       C  0.75236504  0.14681904  0.89891891    -0.07200
C2777       C  0.77216513  0.15016813  0.87369216    -0.18400
C2778       C  0.77406185  0.12772673  0.85078406     0.10000
S2779       S  0.70650188  0.11366640  0.93129087    -0.33400
S2780       S  0.80219877  0.13360962  0.82096182    -0.33400
H2781       H  0.80951460  0.10248214  0.81724807     0.28000
H2782       H  0.69690131  0.14433360  0.93354235     0.28000
H2783       H  0.72068753  0.07803490  0.87931415     0.18600
H2784       H  0.78693612  0.17011662  0.87220566     0.18600
C2785       C  0.89620505  0.14963643  0.75788918    -0.07300
C2786       C  0.87079060  0.15340378  0.73837893    -0.18400
C2787       C  0.84826047  0.13081077  0.73554241     0.09900
C2788       C  0.85072473  0.10370946  0.75300714    -0.07200
C2789       C  0.87541790  0.10046690  0.77358356    -0.18400
C2790       C  0.89783870  0.12332816  0.77665918     0.10000
S2791       S  0.81817093  0.13732428  0.70774967    -0.33400
S2792       S  0.92667668  0.11821593  0.80602466    -0.33400
H2793       H  0.93095625  0.14950448  0.81209903     0.28000
H2794       H  0.81782538  0.10703756  0.69684235     0.28000
H2795       H  0.86918178  0.17357003  0.72404850     0.18600
H2796       H  0.87678595  0.08032991  0.78796739     0.18600
C2797       C  0.89755711  0.35163333  0.74911467    -0.07300
C2798       C  0.89820539  0.37389572  0.72615564    -0.18400
C2799       C  0.87540933  0.39635844  0.72455766     0.09900
C2800       C  0.85243997  0.39767212  0.74737459    -0.07200
C2801       C  0.85144626  0.37499174  0.77002505    -0.18400
C2802       C  0.87370398  0.35192222  0.77111102     0.10000
S2803       S  0.87556636  0.42078037  0.69149506    -0.33400
S2804       S  0.87083249  0.32412204  0.80149211    -0.33400
H2805       H  0.90281041  0.32134593  0.80628670     0.28000
H2806       H  0.84370789  0.42657163  0.69106862     0.28000
H2807       H  0.91589166  0.37300549  0.70862797     0.18600
H2808       H  0.83350974  0.37557838  0.78730374     0.18600
C2809       C  0.60264736  0.14771637  0.74580819    -0.07300
C2810       C  0.59356766  0.11770232  0.75315286    -0.18400
C2811       C  0.61503042  0.09419053  0.75697741     0.09900
C2812       C  0.64677202  0.10020527  0.75224403    -0.07200
C2813       C  0.65584204  0.13027058  0.74526992    -0.18400
C2814       C  0.63440853  0.15366837  0.74106574     0.10000
S2815       S  0.60007807  0.05782543  0.76962200    -0.33400
S2816       S  0.64952037  0.18976263  0.72786577    -0.33400
H2817       H  0.62657536  0.19362656  0.70541701     0.28000
H2818       H  0.62316102  0.05346195  0.79187641     0.28000
H2819       H  0.56945574  0.11247841  0.75699032     0.18600
H2820       H  0.67996276  0.13564393  0.74202647     0.18600
C2821       C  0.60269088  0.35102834  0.74825698    -0.07300
C2822       C  0.62904521  0.34660877  0.76643153    -0.18400
C2823       C  0.65215113  0.36884224  0.76820134     0.09900
C2824       C  0.64903964  0.39621424  0.75125612    -0.07200
C2825       C  0.62281172  0.40051356  0.73295174    -0.18400
C2826       C  0.59996906  0.37812619  0.73083653     0.10000
S2827       S  0.68427920  0.36130721  0.79337288    -0.33400
S2828       S  0.56903348  0.38503907  0.70415180    -0.33400
H2829       H  0.56525124  0.35434708  0.69539300     0.28000
H2830       H  0.68637336  0.39147588  0.80441458     0.28000
H2831       H  0.63130028  0.32598305  0.78000012     0.18600
H2832       H  0.62059395  0.42108978  0.71929406     0.18600
C2833       C  0.89572644  0.25583157  0.64965464    -0.07300
C2834       C  0.87164112  0.23451691  0.65125804    -0.18400
C2835       C  0.84919271  0.23277646  0.62837930     0.09900
C2836       C  0.85053956  0.25307389  0.60323039    -0.07200
C2837       C  0.87427164  0.27486693  0.60192229    -0.18400
C2838       C  0.89646786  0.27690146  0.62513264     0.10000
S2839       S  0.82029318  0.20331686  0.63226831    -0.33400
S2840       S  0.92378364  0.30794865  0.62295869    -0.33400
H2841       H  0.92816556  0.31112876  0.65467273     0.28000
H2842       H  0.81668070  0.19777015  0.60082597     0.28000
H2843       H  0.87088874  0.21833561  0.67002428     0.18600
H2844       H  0.87490312  0.29108874  0.58319141     0.18600
C2845       C  0.59996057  0.25035761  0.64563920    -0.07300
C2846       C  0.61496114  0.22292572  0.63807530    -0.18400
C2847       C  0.63759431  0.22206606  0.61523041     0.09900
C2848       C  0.64589164  0.24938451  0.60018007    -0.07200
C2849       C  0.63086151  0.27670386  0.60777024    -0.18400
C2850       C  0.60786211  0.27752721  0.63010549     0.10000
S2851       S  0.65506676  0.18559990  0.60648038    -0.33400
S2852       S  0.58969076  0.31393027  0.63760211    -0.33400
H2853       H  0.58364771  0.30854835  0.66864252     0.28000
H2854       H  0.66102601  0.19165395  0.57547085     0.28000
H2855       H  0.60866464  0.20197679  0.64973869     0.18600
H2856       H  0.63751735  0.29773122  0.59671177     0.18600
C2857       C  0.64955443  0.25329113  0.89587230    -0.07300
C2858       C  0.65445975  0.23545187  0.86958821    -0.18400
C2859       C  0.63219278  0.23363005  0.84639228     0.09900
C2860       C  0.60452627  0.25054380  0.84926596    -0.07200
C2861       C  0.59983222  0.26872146  0.87534676    -0.18400
C2862       C  0.62202141  0.27046471  0.89857905     0.10000
S2863       S  0.63853056  0.20796680  0.81451592    -0.33400
S2864       S  0.61549700  0.29601025  0.93054207    -0.33400
H2865       H  0.58544655  0.30513260  0.92245372     0.28000
H2866       H  0.66840117  0.19838877  0.82275906     0.28000
H2867       H  0.67543913  0.22209844  0.86773850     0.18600
H2868       H  0.57883796  0.28205306  0.87721416     0.18600
C2869       C  0.85357535  0.25152038  0.89940429    -0.07300
C2870       C  0.84993857  0.23226153  0.87396444    -0.18400
C2871       C  0.87193726  0.23136776  0.85071157     0.09900
C2872       C  0.89778001  0.25097760  0.85224897    -0.07200
C2873       C  0.90138386  0.27036318  0.87759941    -0.18400
C2874       C  0.87951844  0.27102359  0.90105996     0.10000
S2875       S  0.86668162  0.20327180  0.82093008    -0.33400
S2876       S  0.88547287  0.29814590  0.93161113    -0.33400
H2877       H  0.85412439  0.30581173  0.93486093     0.28000
H2878       H  0.89814516  0.19561018  0.81896439     0.28000
H2879       H  0.83027237  0.21698793  0.87269378     0.18600
H2880       H  0.92105749  0.28563000  0.87880030     0.18600
C2881       C  0.89993248  0.39598943  0.50023832    -0.07300
C2882       C  0.87388229  0.40041862  0.98427869    -0.18400
C2883       C  0.85121141  0.37779191  0.98244531     0.09900
C2884       C  0.85314041  0.35139568  0.49716263    -0.07200
C2885       C  0.87914223  0.34694365  0.51581967    -0.18400
C2886       C  0.90220325  0.36910106  0.51800291     0.10000
S2887       S  0.82061147  0.38355598  0.95503693    -0.33400
S2888       S  0.93247211  0.36255733  0.54554073    -0.33400
H2889       H  0.93465103  0.39325667  0.55497726     0.28000
H2890       H  0.81948725  0.35280866  0.94557796     0.28000
H2891       H  0.87165796  0.42061598  0.97007074     0.18600
H2892       H  0.88085406  0.32662124  0.52991918     0.18600
C2893       C  0.89595353  0.10186848  0.49676840    -0.07300
C2894       C  0.89786635  0.12538951  0.51857237    -0.18400
C2895       C  0.87558447  0.14846523  0.52010504     0.09900
C2896       C  0.85111026  0.14871734  0.49880422    -0.07200
C2897       C  0.84610915  0.12071739  0.98410311    -0.18400
C2898       C  0.86875565  0.09798868  0.98175086     0.10000
S2899       S  0.87879533  0.17591476  0.55080592    -0.33400
S2900       S  0.86204819  0.06737036  0.95485244    -0.33400
H2901       H  0.89275912  0.06601873  0.94446896     0.28000
H2902       H  0.84686566  0.17916643  0.55555461     0.28000
H2903       H  0.91638278  0.12522417  0.53526173     0.18600
H2904       H  0.82530329  0.11866783  0.97047239     0.18600
C2905       C  0.60366425  0.40097824  0.49388349    -0.07300
C2906       C  0.59874160  0.37486907  0.51180345    -0.18400
C2907       C  0.62052468  0.35150775  0.51324302     0.09900
C2908       C  0.64786112  0.35368203  0.49582595    -0.07200
C2909       C  0.65615936  0.38255524  0.98141074    -0.18400
C2910       C  0.63447195  0.40633213  0.98084874     0.10000
S2911       S  0.61289534  0.32075828  0.53948579    -0.33400
S2912       S  0.64455839  0.44034661  0.95978797    -0.33400
H2913       H  0.61545597  0.44342142  0.94582086     0.28000
H2914       H  0.64371439  0.31873121  0.54934970     0.28000
H2915       H  0.57813660  0.37310750  0.52576121     0.18600
H2916       H  0.67773417  0.38540254  0.96919622     0.18600
C2917       C  0.60050791  0.10410524  0.50225346    -0.07300
C2918       C  0.59850963  0.12870523  0.98338349    -0.18400
C2919       C  0.62074192  0.15165839  0.98128961     0.09900
C2920       C  0.64683392  0.14956037  0.50039463    -0.07200
C2921       C  0.64880037  0.12527348  0.52130160    -0.18400
C2922       C  0.62587853  0.10272757  0.52262607     0.10000
S2923       S  0.61385581  0.18202738  0.95422526    -0.33400
S2924       S  0.62977750  0.07357840  0.55158881    -0.33400
H2925       H  0.59796059  0.07054779  0.55718207     0.28000
H2926       H  0.64469648  0.18394059  0.94430059     0.28000
H2927       H  0.57788498  0.13038132  0.96943259     0.18600
H2928       H  0.66793839  0.12428330  0.53725890     0.18600
C2929       C  0.85491096  0.99909782  0.84987703    -0.07300
C2930       C  0.87906080  0.02035888  0.84762519    -0.18400
C2931       C  0.90141794  0.02298353  0.87064593     0.09900
C2932       C  0.89985423  0.00372501  0.89667317    -0.07200
C2933       C  0.87544620  0.47942743  0.89933650    -0.18400
C2934       C  0.85293710  0.47735003  0.87648625     0.10000
S2935       S  0.93040235  0.05217434  0.86577365    -0.33400
S2936       S  0.82454557  0.44739244  0.88023094    -0.33400
H2937       H  0.82123975  0.44193950  0.84869796     0.28000
H2938       H  0.93342884  0.05871631  0.89704463     0.28000
H2939       H  0.88003719  0.03566206  0.82815779     0.18600
H2940       H  0.87483610  0.46344004  0.91826997     0.18600
C2941       C  0.60286455  0.00007416  0.89639670    -0.07300
C2942       C  0.60038094  0.48483474  0.87439355    -0.18400
C2943       C  0.62293500  0.48166187  0.85192677     0.09900
C2944       C  0.64917172  0.99581484  0.85129990    -0.07200
C2945       C  0.65017802  0.01893968  0.87353037    -0.18400
C2946       C  0.62728017  0.02144760  0.89587180     0.10000
S2947       S  0.61733413  0.45191075  0.82381990    -0.33400
S2948       S  0.63003789  0.05307670  0.92230808    -0.33400
H2949       H  0.59805718  0.05770194  0.92537125     0.28000
H2950       H  0.64874536  0.44444629  0.82059698     0.28000
H2951       H  0.58060821  0.46965335  0.87393775     0.18600
H2952       H  0.66848333  0.03582865  0.87289587     0.18600
C2953       C  0.60110366  0.00283569  0.60122197    -0.07300
C2954       C  0.62788812  0.48201635  0.59776941    -0.18400
C2955       C  0.65004139  0.47846660  0.62086565     0.09900
C2956       C  0.64675726  0.99911248  0.64750510    -0.07200
C2957       C  0.62027917  0.01724706  0.65159423    -0.18400
C2958       C  0.59775470  0.01967439  0.62870678     0.10000
S2959       S  0.67959451  0.44992487  0.61498482    -0.33400
S2960       S  0.56636041  0.04603890  0.63535807    -0.33400
H2961       H  0.56494963  0.05668707  0.60502918     0.28000
H2962       H  0.68142938  0.44106788  0.64586684     0.28000
H2963       H  0.63001638  0.46855219  0.57704260     0.18600
H2964       H  0.61768670  0.03061756  0.67232662     0.18600
C2965       C  0.85264311  0.00141966  0.64710288    -0.07300
C2966       C  0.88067818  0.49028562  0.65462918    -0.18400
C2967       C  0.90305932  0.48630900  0.63207608     0.09900
C2968       C  0.89631686  0.99584256  0.59985418    -0.07200
C2969       C  0.87230670  0.01719659  0.59768286    -0.18400
C2970       C  0.85083439  0.02052127  0.62119497     0.10000
S2971       S  0.93645665  0.46409356  0.64233294    -0.33400
S2972       S  0.82353840  0.05138398  0.61800314    -0.33400
H2973       H  0.82311730  0.05840610  0.64941930     0.28000
H2974       H  0.93827604  0.44864207  0.61412838     0.28000
H2975       H  0.88558166  0.48214241  0.67746389     0.18600
H2976       H  0.87115287  0.03246720  0.57818959     0.18600
C2977       C  0.50412367  0.14886371  0.85217339    -0.07300
C2978       C  0.97892335  0.15186360  0.87703168    -0.18400
C2979       C  0.97767373  0.12901007  0.89945761     0.09900
C2980       C  0.50034800  0.10383851  0.89861471    -0.07200
C2981       C  0.52030215  0.10003578  0.87358296    -0.18400
C2982       C  0.52296132  0.12247049  0.85088669     0.10000
S2983       S  0.94616300  0.13079798  0.92642452    -0.33400
S2984       S  0.55244103  0.11699822  0.82236411    -0.33400
H2985       H  0.55954481  0.14820505  0.81891332     0.28000
H2986       H  0.94347894  0.09917363  0.93122368     0.28000
H2987       H  0.96122080  0.16940381  0.87663110     0.18600
H2988       H  0.53490917  0.07992288  0.87232546     0.18600
C2989       C  0.50119159  0.35292127  0.85072714    -0.07300
C2990       C  0.52253658  0.35118302  0.87485010    -0.18400
C2991       C  0.52419239  0.37408605  0.89729475     0.09900
C2992       C  0.50408008  0.39960135  0.89581859    -0.07200
C2993       C  0.98571062  0.40552373  0.87075448    -0.18400
C2994       C  0.98400119  0.38359503  0.84734406     0.10000
S2995       S  0.55306409  0.36977383  0.92672539    -0.33400
S2996       S  0.95989056  0.39261216  0.81491408    -0.33400
H2997       H  0.94774621  0.36294441  0.81179481     0.28000
H2998       H  0.56032838  0.40108683  0.92853762     0.28000
H2999       H  0.53847111  0.33207951  0.87592869     0.18600
H3000       H  0.97291726  0.42669619  0.86824080     0.18600
C3001       C  0.50360689  0.39883267  0.60155194    -0.07300
C3002       C  0.49983833  0.36811915  0.59274864    -0.18400
C3003       C  0.49920497  0.34427249  0.61409748     0.09900
C3004       C  0.50065373  0.35089861  0.64594029    -0.07200
C3005       C  0.00439867  0.38141943  0.65476005    -0.18400
C3006       C  0.00568362  0.40522141  0.63339554     0.10000
S3007       S  0.49680521  0.30621444  0.59835884    -0.33400
S3008       S  0.01319767  0.44335784  0.64776491    -0.33400
H3009       H  0.02421211  0.43476173  0.67678093     0.28000
H3010       H  0.52522168  0.29714051  0.61107607     0.28000
H3011       H  0.49774550  0.36231085  0.56875532     0.18600
H3012       H  0.00528357  0.38721175  0.67879298     0.18600
C3013       C  0.49537382  0.10192201  0.60118606    -0.07300
C3014       C  0.01497765  0.12719218  0.59973760    -0.18400
C3015       C  0.01702704  0.14996179  0.62231126     0.09900
C3016       C  0.49778262  0.14786488  0.64683915    -0.07200
C3017       C  0.47997260  0.12136194  0.65114594    -0.18400
C3018       C  0.47837198  0.09846394  0.62862416     0.10000
S3019       S  0.04351310  0.18134062  0.61670739    -0.33400
S3020       S  0.45336946  0.06585704  0.63467964    -0.33400
H3021       H  0.44141128  0.07502445  0.66315779     0.28000
H3022       H  0.06236388  0.16641885  0.59513106     0.28000
H3023       H  0.02835468  0.12953559  0.57895282     0.18600
H3024       H  0.46681619  0.11891097  0.67204617     0.18600
O3025       O  0.49981897  0.55023443  0.08640250    -0.87600
O3026       O  0.50004975  0.55237297  0.41306279    -0.87800
O3027       O  0.54717238  0.59010488  0.00148452    -0.89500
O3028       O  0.94701407  0.58547263  0.00090083    -0.88200
O3029       O  0.91041883  0.54754030  0.99961099    -0.87800
O3030       O  0.58576020  0.55412387  0.00234741    -0.89200
O3031       O  0.49793466  0.58906623  0.45063231    -0.87600
O3032       O  0.49916450  0.58791588  0.04988749    -0.87200
Zr3033     Zr  0.49806091  0.56309953  0.99970055     2.84300
O3034       O  0.96686216  0.53028049  0.46894003    -1.09200
O3035       O  0.53063641  0.53321049  0.03008958    -1.09900
C3036       C  0.49949096  0.57856097  0.07794857     1.05500
C3037       C  0.49879667  0.58045453  0.42238336     1.05400
C3038       C  0.57581357  0.58197029  0.00298968     1.08400
C3039       C  0.91888001  0.57581815  0.99993423     1.06200
H3040       H  0.54346266  0.54627472  0.45603704     0.31800
O3041       O  0.53077933  0.53312873  0.46856856    -1.30200
H3042       H  0.95464284  0.54336232  0.04480258     0.31400
O3043       O  0.96792562  0.53116567  0.03196354    -1.31800
O3044       O  0.50016300  0.95006906  0.41236365    -0.87600
O3045       O  0.50415688  0.95194032  0.08644252    -0.89100
O3046       O  0.58737487  0.50263039  0.44929177    -0.87700
O3047       O  0.91023323  0.49928241  0.45190755    -0.87700
O3048       O  0.91380113  0.49708937  0.05065607    -0.87500
O3049       O  0.58852940  0.50327226  0.04790944    -0.87300
O3050       O  0.55360870  0.91554352  0.99644432    -0.87600
O3051       O  0.95433928  0.91281038  0.00005468    -0.87100
O3052       O  0.59040590  0.95317887  0.99671571    -0.88200
O3053       O  0.91581173  0.94886690  0.99946469    -0.87300
O3054       O  0.54990350  0.50178872  0.41213209    -0.87700
O3055       O  0.55109417  0.50211861  0.08501548    -0.87400
O3056       O  0.95125654  0.49865013  0.08765045    -0.87100
O3057       O  0.94726816  0.50057009  0.41440936    -0.87500
O3058       O  0.49933739  0.91329422  0.44978279    -0.87800
O3059       O  0.50560143  0.91474929  0.04970955    -0.89100
Zr3060     Zr  0.50025377  0.50189283  0.43740984     2.83100
Zr3061     Zr  0.50074542  0.50083344  0.06026506     2.83500
Zr3062     Zr  0.56253772  0.50352427  0.99886188     2.84100
Zr3063     Zr  0.93813091  0.49930933  0.00040073     2.83400
Zr3064     Zr  0.50288595  0.93904707  0.99935584     2.84200
O3065       O  0.97091631  0.96975909  0.03056675    -1.09700
O3066       O  0.53122009  0.97009107  0.46826817    -1.09200
C3067       C  0.49987226  0.92197011  0.42154578     1.05500
C3068       C  0.50571233  0.92376237  0.07793923     1.08100
C3069       C  0.57821899  0.50227361  0.42114283     1.05600
C3070       C  0.91895699  0.50061424  0.42375284     1.06000
C3071       C  0.92296690  0.49686115  0.07882013     1.05600
C3072       C  0.57945632  0.50299521  0.07597504     1.05100
C3073       C  0.58183560  0.92498876  0.99571107     1.05600
C3074       C  0.92564469  0.92087602  0.99998987     1.05100
H3075       H  0.54728441  0.95790825  0.04235837     0.31700
O3076       O  0.53388894  0.97036999  0.02990587    -1.30800
H3077       H  0.95558568  0.95602264  0.45471202     0.31800
O3078       O  0.96808198  0.96883872  0.46773929    -1.32200
O3079       O  0.50200148  0.70053496  0.16274530    -0.87600
O3080       O  0.50074067  0.70225437  0.33751696    -0.87800
O3081       O  0.54975150  0.66332516  0.24785691    -0.89500
O3082       O  0.94956407  0.66363492  0.25323757    -0.88200
O3083       O  0.91244779  0.70105880  0.25092813    -0.87800
O3084       O  0.58673973  0.70049753  0.25093850    -0.89200
O3085       O  0.50287827  0.66464516  0.30081813    -0.87600
O3086       O  0.50112828  0.66362102  0.20006224    -0.87200
Zr3087     Zr  0.50062504  0.68886427  0.25018547     2.84300
O3088       O  0.96797750  0.72021324  0.28111420    -1.09200
O3089       O  0.53192595  0.71961171  0.21925663    -1.09900
C3090       C  0.50202849  0.67241797  0.17180084     1.05500
C3091       C  0.50221488  0.67402686  0.32892519     1.05400
C3092       C  0.57798549  0.67239566  0.24886662     1.08400
C3093       C  0.92128039  0.67285161  0.25288576     1.06200
H3094       H  0.54476919  0.70735593  0.29403741     0.31800
O3095       O  0.53181559  0.71992727  0.28111233    -1.30200
H3096       H  0.95567566  0.70681107  0.20631989     0.31400
O3097       O  0.96855202  0.71954150  0.21906935    -1.31800
O3098       O  0.49907442  0.80130910  0.33577813    -0.87600
O3099       O  0.50184763  0.79982870  0.16271608    -0.89100
O3100       O  0.58803155  0.75063120  0.30015530    -0.87700
O3101       O  0.91091215  0.74992612  0.29874628    -0.87700
O3102       O  0.91321822  0.75217517  0.19927189    -0.87500
O3103       O  0.58917208  0.74935129  0.20063896    -0.87300
O3104       O  0.55045020  0.83702790  0.25132278    -0.87600
O3105       O  0.95044893  0.83784623  0.24859014    -0.87100
O3106       O  0.58829244  0.80021097  0.25097031    -0.88200
O3107       O  0.91250256  0.80109457  0.25003557    -0.87300
O3108       O  0.55008368  0.75290581  0.33678147    -0.87700
O3109       O  0.55181652  0.75016286  0.16325116    -0.87400
O3110       O  0.95103582  0.75278012  0.16243041    -0.87100
O3111       O  0.94808151  0.75037657  0.33620155    -0.87500
O3112       O  0.49873726  0.83824346  0.29855360    -0.87800
O3113       O  0.50167902  0.83728317  0.19913596    -0.89100
Zr3114     Zr  0.50040369  0.75133108  0.31130243     2.83100
Zr3115     Zr  0.50096011  0.75022289  0.18793072     2.83500
Zr3116     Zr  0.56281829  0.75072041  0.25014767     2.84100
Zr3117     Zr  0.93752891  0.75108338  0.24961935     2.83400
Zr3118     Zr  0.50013903  0.81227318  0.24913940     2.84200
O3119       O  0.96918048  0.78149775  0.21872800    -1.09700
O3120       O  0.53159934  0.78212754  0.28053081    -1.09200
C3121       C  0.49824629  0.82941933  0.32675524     1.05500
C3122       C  0.50247174  0.82813214  0.17097214     1.08100
C3123       C  0.57849386  0.75165996  0.32815771     1.05600
C3124       C  0.91970704  0.74953797  0.32698333     1.06000
C3125       C  0.92257455  0.75319395  0.17121749     1.05600
C3126       C  0.58021499  0.74962471  0.17242194     1.05100
C3127       C  0.57894097  0.82825598  0.25122615     1.05600
C3128       C  0.92198487  0.82909725  0.24937522     1.05100
H3129       H  0.54501635  0.79413416  0.20609196     0.31700
O3130       O  0.53195639  0.78145571  0.21871328    -1.30800
H3131       H  0.95574700  0.79510564  0.29331364     0.31800
O3132       O  0.96847268  0.78218738  0.28073265    -1.32200
O3133       O  0.83776162  0.00376744  0.19823761    -0.87600
O3134       O  0.66376159  0.99930423  0.19813387    -0.87800
O3135       O  0.75398012  0.95110939  0.16091334    -0.89500
O3136       O  0.74948397  0.55064113  0.16230256    -0.88200
O3137       O  0.74833974  0.58741988  0.19965460    -0.87800
O3138       O  0.75299228  0.91379557  0.19772552    -0.89200
O3139       O  0.70137026  0.99869076  0.16108541    -0.87600
O3140       O  0.80069859  0.00475772  0.16077370    -0.87200
Zr3141     Zr  0.75089153  0.00060695  0.18658219     2.84300
O3142       O  0.71849411  0.53176260  0.21791809    -1.09200
O3143       O  0.78230209  0.96957057  0.21698093    -1.09900
C3144       C  0.82902381  0.00534584  0.17004060     1.05500
C3145       C  0.67304714  0.99859951  0.17006238     1.05400
C3146       C  0.75443285  0.92287154  0.16959205     1.08400
C3147       C  0.74843297  0.57884340  0.17134645     1.06200
H3148       H  0.70713658  0.95572308  0.20409632     0.31800
O3149       O  0.71975873  0.96875058  0.21684350    -1.30200
H3150       H  0.79414534  0.54437397  0.20626082     0.31400
O3151       O  0.78124841  0.53160285  0.21896650    -1.31800
O3152       O  0.66266479  0.99676013  0.29782371    -0.87600
O3153       O  0.83830698  0.00065538  0.29745570    -0.89100
O3154       O  0.70167330  0.91254003  0.25056648    -0.87700
O3155       O  0.69941410  0.58701513  0.25215970    -0.87700
O3156       O  0.79885726  0.58804147  0.24933783    -0.87500
O3157       O  0.80148156  0.91395654  0.24756405    -0.87300
O3158       O  0.74987367  0.94975100  0.33494843    -0.87600
O3159       O  0.75020116  0.55059744  0.33592242    -0.87100
O3160       O  0.75117051  0.91263287  0.29787043    -0.88200
O3161       O  0.75238471  0.58800922  0.29921412    -0.87300
O3162       O  0.66395906  0.94942940  0.24992095    -0.87700
O3163       O  0.83856984  0.95149550  0.24511140    -0.87400
O3164       O  0.83659090  0.55115398  0.25076067    -0.87100
O3165       O  0.66221466  0.55004357  0.24830991    -0.87500
O3166       O  0.70029770  0.99888599  0.33479703    -0.87800
O3167       O  0.80083057  0.99956817  0.33458095    -0.89100
Zr3168     Zr  0.68854163  0.99937957  0.24821250     2.83100
Zr3169     Zr  0.81265081  0.00106442  0.24793303     2.83500
Zr3170     Zr  0.75133771  0.93838656  0.24797546     2.84100
Zr3171     Zr  0.74943353  0.56223395  0.24957903     2.83400
Zr3172     Zr  0.75061532  0.99977981  0.31001629     2.84200
O3173       O  0.78020086  0.53144142  0.28090935    -1.09700
O3174       O  0.71996245  0.96880256  0.27893044    -1.09200
C3175       C  0.67190761  0.99709278  0.32595628     1.05500
C3176       C  0.82917710  0.99964706  0.32555824     1.08100
C3177       C  0.67324459  0.92137877  0.25131094     1.05600
C3178       C  0.67105253  0.57806004  0.25107536     1.06000
C3179       C  0.82727019  0.57929699  0.24987798     1.05600
C3180       C  0.82962730  0.92330655  0.24590726     1.05100
C3181       C  0.74988317  0.92150938  0.32612380     1.05600
C3182       C  0.75210725  0.57887190  0.32734330     1.05100
H3183       H  0.79534637  0.95664912  0.29149490     0.31700
O3184       O  0.78226894  0.96942492  0.27892675    -1.30800
H3185       H  0.70476303  0.54414362  0.29282728     0.31800
O3186       O  0.71763697  0.53149014  0.27998425    -1.32200
O3187       O  0.69641078  0.66512813  0.50185146    -0.87600
O3188       O  0.70034042  0.83864115  0.49888959    -0.87800
O3189       O  0.66247675  0.75076620  0.04827480    -0.89500
O3190       O  0.66001890  0.75228941  0.45235905    -0.88200
O3191       O  0.69716023  0.74933673  0.41492720    -0.87800
O3192       O  0.70015207  0.74945820  0.08528347    -0.89200
O3193       O  0.66220031  0.80229245  0.50067885    -0.87600
O3194       O  0.65947468  0.70292914  0.50102391    -0.87200
Zr3195     Zr  0.68624943  0.75183369  0.50147979     2.84300
O3196       O  0.71728462  0.78171077  0.46940201    -1.09200
O3197       O  0.71868073  0.72034307  0.03012138    -1.09900
C3198       C  0.66820558  0.67468534  0.50131628     1.05500
C3199       C  0.67180922  0.83025100  0.49968045     1.05400
C3200       C  0.67172251  0.74943466  0.07636187     1.08400
C3201       C  0.66893368  0.75093748  0.42422853     1.06200
H3202       H  0.70754315  0.79576176  0.04205374     0.31800
O3203       O  0.72026721  0.78265844  0.02940962    -1.30200
H3204       H  0.70294567  0.70709796  0.45745302     0.31400
O3205       O  0.71629650  0.71996520  0.47018811    -1.31800
O3206       O  0.79976561  0.83662022  0.49774145    -0.87600
O3207       O  0.79667969  0.66234136  0.50036923    -0.89100
O3208       O  0.75205186  0.80083894  0.08452717    -0.87700
O3209       O  0.74758429  0.79936381  0.41268947    -0.87700
O3210       O  0.74846005  0.70011036  0.41340143    -0.87500
O3211       O  0.75221903  0.70135403  0.08620403    -0.87300
O3212       O  0.83818244  0.75134594  0.04922674    -0.87600
O3213       O  0.83539630  0.74936075  0.44971300    -0.87100
O3214       O  0.80043800  0.75110632  0.08607473    -0.88200
O3215       O  0.79760221  0.74940060  0.41282100    -0.87300
O3216       O  0.75321105  0.83784073  0.04740878    -0.87700
O3217       O  0.75138285  0.66390861  0.04945263    -0.87400
O3218       O  0.74737756  0.66327351  0.45073526    -0.87100
O3219       O  0.74939851  0.83701811  0.44918521    -0.87500
O3220       O  0.83681682  0.79901193  0.49949386    -0.87800
O3221       O  0.83499868  0.69865866  0.49978100    -0.89100
Zr3222     Zr  0.74960937  0.81208223  0.49951195     2.83100
Zr3223     Zr  0.74727419  0.68873977  0.50075741     2.83500
Zr3224     Zr  0.75058380  0.75089145  0.06041403     2.84100
Zr3225     Zr  0.74786923  0.74985493  0.43878004     2.83400
Zr3226     Zr  0.81100621  0.74932332  0.50024713     2.84200
O3227       O  0.77896856  0.71878085  0.46963956    -1.09700
O3228       O  0.78246828  0.78126011  0.02964430    -1.09200
C3229       C  0.82799733  0.82724378  0.49789214     1.05500
C3230       C  0.82525298  0.67068641  0.50036691     1.08100
C3231       C  0.75258354  0.82895246  0.07563373     1.05600
C3232       C  0.74880695  0.82772331  0.42105575     1.06000
C3233       C  0.74800569  0.67197412  0.42244309     1.05600
C3234       C  0.75264020  0.67305329  0.07753819     1.05100
C3235       C  0.82889217  0.75121529  0.07730687     1.05600
C3236       C  0.82609274  0.74969438  0.42157333     1.05100
H3237       H  0.79402429  0.70667689  0.04307150     0.31700
O3238       O  0.78129904  0.71926557  0.03014812    -1.30800
H3239       H  0.79293461  0.79278759  0.45588857     0.31800
O3240       O  0.78009551  0.78034525  0.46897058    -1.32200
C3241       C  0.74838259  0.60321629  0.14737325    -0.07300
C3242       C  0.76314845  0.59740032  0.11939089    -0.18400
C3243       C  0.76711544  0.62018696  0.09729937     0.09900
C3244       C  0.75361642  0.64931033  0.10179262    -0.07200
C3245       C  0.73853152  0.65522373  0.12956314    -0.18400
C3246       C  0.73559898  0.63268202  0.15208376     0.10000
S3247       S  0.79154553  0.61113579  0.06512446    -0.33400
S3248       S  0.71295108  0.64254920  0.18499969    -0.33400
H3249       H  0.69691152  0.61455246  0.18543471     0.28000
H3250       H  0.80543807  0.64020678  0.06405512     0.28000
H3251       H  0.77247846  0.57512277  0.11489611     0.18600
H3252       H  0.72773699  0.67728249  0.13333665     0.18600
C3253       C  0.75571869  0.89883161  0.14552574    -0.07300
C3254       C  0.74038067  0.87108992  0.15099898    -0.18400
C3255       C  0.73839084  0.84834914  0.12860884     0.09900
C3256       C  0.75270165  0.85279743  0.09980970    -0.07200
C3257       C  0.76849790  0.88032742  0.09443092    -0.18400
C3258       C  0.77055323  0.90307579  0.11694537     0.10800
S3259       S  0.71557866  0.81511532  0.13792763    -0.33400
S3260       S  0.79391271  0.93604932  0.10818475    -0.33400
H3261       H  0.80722131  0.93795536  0.13748652     0.28000
H3262       H  0.70004368  0.81465330  0.10965339     0.28000
H3263       H  0.72870749  0.86746434  0.17260906     0.18600
H3264       H  0.78019578  0.88382164  0.07280688     0.18600
C3265       C  0.74945616  0.85144933  0.39650301    -0.07300
C3266       C  0.73232258  0.87846688  0.40039946    -0.18400
C3267       C  0.73129993  0.90109938  0.37766451     0.09900
C3268       C  0.74854774  0.89742782  0.35032868    -0.07200
C3269       C  0.76574765  0.87040182  0.34645293    -0.18400
C3270       C  0.76659390  0.84759748  0.36918563     0.10000
S3271       S  0.70617883  0.93330821  0.38446375    -0.33400
S3272       S  0.79182670  0.81503121  0.36404941    -0.33400
H3273       H  0.79709413  0.81922697  0.33259213     0.28000
H3274       H  0.69538221  0.93473145  0.35418614     0.28000
H3275       H  0.71882415  0.88161787  0.42103042     0.18600
H3276       H  0.77946761  0.86761372  0.32594362     0.18600
C3277       C  0.75285673  0.60250221  0.35190939    -0.07300
C3278       C  0.73350093  0.59851053  0.37737008    -0.18400
C3279       C  0.73100354  0.62084863  0.40024025     0.09900
C3280       C  0.74876505  0.64791965  0.39834232    -0.07200
C3281       C  0.76852049  0.65178487  0.37310403    -0.18400
C3282       C  0.77121011  0.62927029  0.35030797     0.10000
S3283       S  0.70314715  0.61422912  0.43010875    -0.33400
S3284       S  0.79999211  0.63517339  0.32110722    -0.33400
H3285       H  0.80853817  0.60418046  0.31897162     0.28000
H3286       H  0.69254266  0.64462409  0.43068946     0.28000
H3287       H  0.71919162  0.57824369  0.37891836     0.18600
H3288       H  0.78280140  0.67207967  0.37164647     0.18600
C3289       C  0.89693609  0.64923243  0.25377429    -0.07300
C3290       C  0.87126260  0.65294071  0.23457144    -0.18400
C3291       C  0.84843838  0.63048579  0.23243428     0.09900
C3292       C  0.85105333  0.60348042  0.25011809    -0.07200
C3293       C  0.87646432  0.59999175  0.26972448    -0.18400
C3294       C  0.89913257  0.62262867  0.27209508     0.10000
S3295       S  0.81737890  0.63739874  0.20579422    -0.33400
S3296       S  0.92928573  0.61664851  0.29994765    -0.33400
H3297       H  0.93166404  0.64757938  0.30849347     0.28000
H3298       H  0.81578293  0.60701770  0.19529113     0.28000
H3299       H  0.86943220  0.67312966  0.22029807     0.18600
H3300       H  0.87819826  0.57983528  0.28405440     0.18600
C3301       C  0.89835676  0.85318176  0.24921246    -0.07300
C3302       C  0.89518801  0.87092100  0.22265053    -0.18400
C3303       C  0.87251771  0.89363381  0.22046420     0.09900
C3304       C  0.85339846  0.89950827  0.24592185    -0.07200
C3305       C  0.85642067  0.88171666  0.27237063    -0.18400
C3306       C  0.87855302  0.85855708  0.27437899     0.10000
S3307       S  0.86844087  0.91294137  0.18417463    -0.33400
S3308       S  0.88000319  0.83749877  0.30994294    -0.33400
H3309       H  0.90758225  0.82148373  0.30529996     0.28000
H3310       H  0.83851084  0.92456484  0.18836069     0.28000
H3311       H  0.90994193  0.86641539  0.20312863     0.18600
H3312       H  0.84145131  0.88608179  0.29177558     0.18600
C3313       C  0.60201796  0.64851003  0.24844872    -0.07300
C3314       C  0.59395720  0.61882173  0.25779240    -0.18400
C3315       C  0.61604431  0.59582305  0.26059242     0.09900
C3316       C  0.64699762  0.60199603  0.25238916    -0.07200
C3317       C  0.65506014  0.63178862  0.24357566    -0.18400
C3318       C  0.63301774  0.65472842  0.24058065     0.10000
S3319       S  0.60336519  0.56012138  0.27699698    -0.33400
S3320       S  0.64595782  0.69047735  0.22447162    -0.33400
H3321       H  0.62051287  0.69314852  0.20466241     0.28000
H3322       H  0.62922306  0.55724602  0.29630511     0.28000
H3323       H  0.57035482  0.61357466  0.26398693     0.18600
H3324       H  0.67870124  0.63718639  0.23801555     0.18600
C3325       C  0.60284855  0.85225125  0.25123191    -0.07300
C3326       C  0.62920534  0.84834722  0.26953080    -0.18400
C3327       C  0.65213479  0.87084559  0.27093995     0.09900
C3328       C  0.64912697  0.89762253  0.25299409    -0.07200
C3329       C  0.62258682  0.90160397  0.23509111    -0.18400
C3330       C  0.59978876  0.87917683  0.23365788     0.10000
S3331       S  0.68364085  0.86459607  0.29719485    -0.33400
S3332       S  0.56851699  0.88560937  0.20732791    -0.33400
H3333       H  0.56705225  0.85515165  0.19704115     0.28000
H3334       H  0.68618401  0.89539290  0.30611416     0.28000
H3335       H  0.63156749  0.82798094  0.28346779     0.18600
H3336       H  0.62013882  0.92187875  0.22103269     0.18600
C3337       C  0.89854957  0.75399027  0.14730282    -0.07300
C3338       C  0.87433643  0.73282975  0.14926908    -0.18400
C3339       C  0.85157258  0.73113388  0.12667922     0.09900
C3340       C  0.85279449  0.75120807  0.10135600    -0.07200
C3341       C  0.87694244  0.77251207  0.09942212    -0.18400
C3342       C  0.89940654  0.77456148  0.12237075     0.10000
S3343       S  0.82229710  0.70214910  0.13125840    -0.33400
S3344       S  0.92707396  0.80518498  0.11938452    -0.33400
H3345       H  0.93156030  0.80920360  0.15098198     0.28000
H3346       H  0.81870790  0.69587260  0.09995585     0.28000
H3347       H  0.87355317  0.71691678  0.16825998     0.18600
H3348       H  0.87765255  0.78844997  0.08044871     0.18600
C3349       C  0.60438758  0.74979407  0.14857832    -0.07300
C3350       C  0.61736321  0.72196569  0.13894434    -0.18400
C3351       C  0.63943837  0.72093537  0.11543511     0.09900
C3352       C  0.64803589  0.74838324  0.10052855    -0.07200
C3353       C  0.63510569  0.77612418  0.11028019    -0.18400
C3354       C  0.61398674  0.77719668  0.13447603     0.10000
S3355       S  0.65507737  0.68381042  0.10562964    -0.33400
S3356       S  0.60081427  0.81430360  0.14690776    -0.33400
H3357       H  0.59876404  0.80676213  0.17808857     0.28000
H3358       H  0.68082648  0.69330969  0.08872495     0.28000
H3359       H  0.61024669  0.70086469  0.14981538     0.18600
H3360       H  0.64238058  0.79730548  0.09972595     0.18600
C3361       C  0.64504307  0.75119331  0.40047279    -0.07300
C3362       C  0.64539420  0.72786658  0.37840978    -0.18400
C3363       C  0.62364988  0.72732550  0.35471253     0.09900
C3364       C  0.60173436  0.75107694  0.35261802    -0.07200
C3365       C  0.60077312  0.77385335  0.37522881    -0.18400
C3366       C  0.62230689  0.77430253  0.39902065     0.10000
S3367       S  0.62282136  0.69537344  0.32845446    -0.33400
S3368       S  0.62026472  0.80554102  0.42599834    -0.33400
H3369       H  0.65235087  0.80868487  0.42981300     0.28000
H3370       H  0.64270115  0.67627941  0.34530128     0.28000
H3371       H  0.66253267  0.70987274  0.38002512     0.18600
H3372       H  0.58351677  0.79178663  0.37395124     0.18600
C3373       C  0.84992579  0.75042097  0.39730554    -0.07300
C3374       C  0.84656141  0.73103973  0.37186527    -0.18400
C3375       C  0.86918735  0.72954575  0.34899035     0.09900
C3376       C  0.89548495  0.74869071  0.35088029    -0.07200
C3377       C  0.89870027  0.76814530  0.37622172    -0.18400
C3378       C  0.87629720  0.76939588  0.39921329     0.10000
S3379       S  0.86385016  0.70147113  0.31916020    -0.33400
S3380       S  0.88236078  0.79659420  0.42966185    -0.33400
H3381       H  0.85105241  0.80425734  0.43285880     0.28000
H3382       H  0.89537436  0.69487276  0.31532511     0.28000
H3383       H  0.82666630  0.71609029  0.37035220     0.18600
H3384       H  0.91856435  0.78313183  0.37777345     0.18600
C3385       C  0.90200323  0.89623728  0.99957384    -0.07300
C3386       C  0.87349549  0.89836409  0.47688661    -0.18400
C3387       C  0.85112635  0.87532789  0.47534070     0.09900
C3388       C  0.85591638  0.85031216  0.99574332    -0.07200
C3389       C  0.88299320  0.84543609  0.01272283    -0.18400
C3390       C  0.90575676  0.86804131  0.01513999     0.10000
S3391       S  0.82263496  0.87820410  0.44527275    -0.33400
S3392       S  0.93781839  0.86000613  0.04015269    -0.33400
H3393       H  0.93902637  0.88963247  0.05269844     0.28000
H3394       H  0.81776065  0.84666406  0.44163688     0.28000
H3395       H  0.87282169  0.91687866  0.46041713     0.18600
H3396       H  0.88589163  0.82430450  0.02536309     0.18600
C3397       C  0.89471673  0.59942591  0.00021081    -0.07300
C3398       C  0.89870765  0.62438560  0.02002639    -0.18400
C3399       C  0.87668524  0.64757948  0.02199299     0.09900
C3400       C  0.85057112  0.64661527  0.00267650    -0.07200
C3401       C  0.84478371  0.62042548  0.48237308    -0.18400
C3402       C  0.86695212  0.59711360  0.48138700     0.10000
S3403       S  0.88239544  0.67644304  0.05095292    -0.33400
S3404       S  0.86093443  0.56644950  0.45442138    -0.33400
H3405       H  0.89198347  0.56487283  0.44515133     0.28000
H3406       H  0.85087981  0.68028617  0.05744689     0.28000
H3407       H  0.91874798  0.62533631  0.03486589     0.18600
H3408       H  0.82487492  0.61902938  0.46740780     0.18600
C3409       C  0.60607235  0.90133272  0.99479876    -0.07300
C3410       C  0.60046760  0.87402549  0.01060487    -0.18400
C3411       C  0.62275718  0.85118294  0.01250555     0.09900
C3412       C  0.65130925  0.85495007  0.99732244    -0.07200
C3413       C  0.65275561  0.87990270  0.47967239    -0.18400
C3414       C  0.63051209  0.90302464  0.47726868     0.10000
S3415       S  0.61387800  0.81891138  0.03656231    -0.33400
S3416       S  0.63789463  0.93370919  0.45068618    -0.33400
H3417       H  0.60698531  0.93694012  0.44136608     0.28000
H3418       H  0.64362982  0.81751046  0.04936756     0.28000
H3419       H  0.57887102  0.87086520  0.02271210     0.18600
H3420       H  0.67338518  0.88125599  0.46572019     0.18600
C3421       C  0.59912206  0.60658717  0.00459027    -0.07300
C3422       C  0.59894008  0.62682189  0.47906774    -0.18400
C3423       C  0.62127983  0.64980576  0.47793391     0.09900
C3424       C  0.64515813  0.65214838  0.00094762    -0.07200
C3425       C  0.64934349  0.62634468  0.01952996    -0.18400
C3426       C  0.62670054  0.60373712  0.02172426     0.10000
S3427       S  0.62009491  0.67558006  0.44571082    -0.33400
S3428       S  0.63413024  0.57254296  0.04767113    -0.33400
H3429       H  0.60332666  0.56981825  0.05734977     0.28000
H3430       H  0.65198719  0.68101175  0.44416644     0.28000
H3431       H  0.58165681  0.62555839  0.46116190     0.18600
H3432       H  0.67025782  0.62401771  0.03295856     0.18600
C3433       C  0.84913410  0.49988503  0.35403742    -0.07300
C3434       C  0.87513485  0.51869084  0.35088890    -0.18400
C3435       C  0.89763102  0.52019101  0.37369765     0.09900
C3436       C  0.89452977  0.50209028  0.40028730    -0.07200
C3437       C  0.87237008  0.98182625  0.39877654    -0.18400
C3438       C  0.85030014  0.97984750  0.37556207     0.10000
S3439       S  0.92902734  0.54663079  0.36794696    -0.33400
S3440       S  0.82021445  0.95162589  0.37990839    -0.33400
H3441       H  0.81910387  0.94359072  0.34874782     0.28000
H3442       H  0.93021846  0.55615429  0.39866228     0.28000
H3443       H  0.87764378  0.53289806  0.33073603     0.18600
H3444       H  0.87022179  0.96711142  0.41860573     0.18600
C3445       C  0.60187615  0.50221297  0.39703036    -0.07300
C3446       C  0.60172925  0.97590343  0.37398636    -0.18400
C3447       C  0.62428345  0.97419900  0.35099303     0.09900
C3448       C  0.64638066  0.49972075  0.35014110    -0.07200
C3449       C  0.64978926  0.52008842  0.37478266    -0.18400
C3450       C  0.62756790  0.52200856  0.39782634     0.10000
S3451       S  0.62173195  0.94282220  0.32419815    -0.33400
S3452       S  0.63229996  0.55154840  0.42632490    -0.33400
H3453       H  0.60065257  0.55820542  0.42928464     0.28000
H3454       H  0.65338200  0.94091436  0.31760053     0.28000
H3455       H  0.58343990  0.95900410  0.37445075     0.18600
H3456       H  0.66939001  0.53547900  0.37549358     0.18600
C3457       C  0.60356732  0.50313226  0.09962540    -0.07300
C3458       C  0.62876635  0.98035066  0.09775194    -0.18400
C3459       C  0.65051625  0.97767125  0.12121173     0.09900
C3460       C  0.64881009  0.49897442  0.14572978    -0.07200
C3461       C  0.62343372  0.51865438  0.14907904    -0.18400
C3462       C  0.60119769  0.52140102  0.12614692     0.10000
S3463       S  0.67789903  0.94655531  0.11885421    -0.33400
S3464       S  0.57147108  0.54989086  0.13142386    -0.33400
H3465       H  0.56874787  0.55770467  0.10035133     0.28000
H3466       H  0.68069968  0.94198730  0.15057710     0.28000
H3467       H  0.62950152  0.96438172  0.07877621     0.18600
H3468       H  0.62153984  0.53295294  0.16926315     0.18600
C3469       C  0.85296678  0.49962375  0.14853559    -0.07300
C3470       C  0.88039881  0.98920673  0.15189227    -0.18400
C3471       C  0.90328032  0.98644837  0.12966131     0.09900
C3472       C  0.89901180  0.49561662  0.10282803    -0.07200
C3473       C  0.86979779  0.50749914  0.09603072    -0.18400
C3474       C  0.84688474  0.50944886  0.11825737     0.10000
S3475       S  0.93530749  0.96151956  0.13829933    -0.33400
S3476       S  0.81164900  0.52764608  0.10682874    -0.33400
H3477       H  0.81118528  0.54603056  0.13328560     0.28000
H3478       H  0.93685633  0.94860941  0.10885499     0.28000
H3479       H  0.88301867  0.97668949  0.17308001     0.18600
H3480       H  0.86495563  0.51638872  0.07339533     0.18600
C3481       C  0.50266884  0.65065228  0.35338209    -0.07300
C3482       C  0.97875537  0.65276413  0.37868883    -0.18400
C3483       C  0.97625778  0.62959948  0.40072668     0.09900
C3484       C  0.49905646  0.60467584  0.39877196    -0.07200
C3485       C  0.52198130  0.60359760  0.37612766    -0.18400
C3486       C  0.52435474  0.62650822  0.35389253     0.10000
S3487       S  0.94856187  0.63513711  0.43102985    -0.33400
S3488       S  0.55663315  0.62453916  0.32804673    -0.33400
H3489       H  0.56041682  0.65634231  0.32507964     0.28000
H3490       H  0.93874267  0.60447485  0.43155439     0.28000
H3491       H  0.96440304  0.67297973  0.38080110     0.18600
H3492       H  0.53882458  0.58523901  0.37635873     0.18600
C3493       C  0.49721689  0.85312988  0.35094258    -0.07300
C3494       C  0.51384117  0.84782376  0.37802297    -0.18400
C3495       C  0.51562100  0.86991063  0.40107342     0.09900
C3496       C  0.49964604  0.89793717  0.39765848    -0.07200
C3497       C  0.98694845  0.90339019  0.37025459    -0.18400
C3498       C  0.98505938  0.88088168  0.34760383     0.10000
S3499       S  0.54045974  0.86161068  0.43313779    -0.33400
S3500       S  0.95934676  0.88815300  0.31595567    -0.33400
H3501       H  0.94859688  0.85791270  0.31396598     0.28000
H3502       H  0.55330429  0.89114406  0.43438651     0.28000
H3503       H  0.52667048  0.82670124  0.38078668     0.18600
H3504       H  0.97385706  0.92433363  0.36736776     0.18600
C3505       C  0.50710104  0.89976364  0.10221375    -0.07300
C3506       C  0.50450644  0.86897519  0.09338187    -0.18400
C3507       C  0.50471775  0.84523633  0.11472004     0.09900
C3508       C  0.50458667  0.85202983  0.14651160    -0.07200
C3509       C  0.00692889  0.88286176  0.15580205    -0.18400
C3510       C  0.00958221  0.90668403  0.13443794     0.10000
S3511       S  0.50670979  0.80715397  0.09904864    -0.33400
S3512       S  0.02052230  0.94415846  0.14843743    -0.33400
H3513       H  0.01313716  0.93923142  0.17936695     0.28000
H3514       H  0.53470176  0.80056450  0.11405216     0.28000
H3515       H  0.50322284  0.86300208  0.06937071     0.18600
H3516       H  0.00805394  0.88843176  0.17984812     0.18600
C3517       C  0.49989354  0.60224128  0.10230400    -0.07300
C3518       C  0.01721879  0.62836391  0.09974337    -0.18400
C3519       C  0.01882157  0.65111537  0.12229792     0.09900
C3520       C  0.50236601  0.64832522  0.14785062    -0.07200
C3521       C  0.48243685  0.62320577  0.15095826    -0.18400
C3522       C  0.48080626  0.60030745  0.12844314     0.10000
S3523       S  0.04461373  0.68315270  0.11671441    -0.33400
S3524       S  0.45298836  0.56974973  0.13249336    -0.33400
H3525       H  0.43941258  0.58015563  0.15980897     0.28000
H3526       H  0.05094895  0.67773816  0.08563101     0.28000
H3527       H  0.03107923  0.63045813  0.07924755     0.18600
H3528       H  0.46754693  0.62196680  0.17080031     0.18600
O3529       O  0.49880021  0.55046230  0.58626419    -0.87600
O3530       O  0.49885117  0.55132359  0.91255526    -0.87800
O3531       O  0.54779296  0.58866683  0.50044365    -0.89500
O3532       O  0.94609357  0.58538993  0.49992052    -0.88200
O3533       O  0.90973229  0.54722023  0.50059518    -0.87800
O3534       O  0.58630912  0.55243234  0.50099833    -0.89200
O3535       O  0.49561939  0.58825495  0.94987097    -0.87600
O3536       O  0.49749914  0.58789224  0.54958744    -0.87200
Zr3537     Zr  0.49833920  0.56267791  0.49969455     2.84300
O3538       O  0.96841489  0.53141734  0.97001740    -1.09200
O3539       O  0.53048312  0.53250872  0.53035877    -1.09900
C3540       C  0.49776947  0.57875386  0.57771187     1.05500
C3541       C  0.49639692  0.57934458  0.92166720     1.05400
C3542       C  0.57632659  0.58026727  0.50122011     1.08400
C3543       C  0.91795891  0.57561153  0.50012283     1.06200
H3544       H  0.54291600  0.54734624  0.95577156     0.31800
O3545       O  0.53051041  0.53383421  0.96825350    -1.30200
H3546       H  0.95417024  0.54307782  0.54378113     0.31400
O3547       O  0.96730103  0.53076297  0.53090192    -1.31800
O3548       O  0.50135206  0.95130501  0.91226133    -0.87600
O3549       O  0.50032923  0.95186324  0.58587455    -0.89100
O3550       O  0.58895457  0.50721211  0.95016638    -0.87700
O3551       O  0.91376321  0.49931469  0.94984098    -0.87700
O3552       O  0.91257689  0.49674289  0.55028037    -0.87500
O3553       O  0.58747582  0.50172027  0.54939663    -0.87300
O3554       O  0.55110587  0.91563084  0.49596572    -0.87600
O3555       O  0.94943111  0.91278071  0.49893538    -0.87100
O3556       O  0.58826743  0.95305121  0.49643594    -0.88200
O3557       O  0.91151493  0.94956522  0.49758615    -0.87300
O3558       O  0.55147100  0.50351352  0.91323941    -0.87700
O3559       O  0.54972942  0.50172169  0.58620801    -0.87400
O3560       O  0.95026596  0.49977845  0.58693452    -0.87100
O3561       O  0.95146736  0.50209572  0.91301546    -0.87500
O3562       O  0.50254083  0.91413004  0.94933929    -0.87800
O3563       O  0.50342971  0.91444538  0.54957559    -0.89100
Zr3564     Zr  0.50077628  0.50148878  0.93724784     2.83100
Zr3565     Zr  0.49979703  0.50073134  0.56056598     2.83500
Zr3566     Zr  0.56225355  0.50224027  0.49930512     2.84100
Zr3567     Zr  0.93723366  0.49855940  0.50039583     2.83400
Zr3568     Zr  0.50043266  0.93896995  0.49928181     2.84200
O3569       O  0.96762907  0.96903358  0.52971298    -1.09700
O3570       O  0.53291586  0.97039803  0.96794278    -1.09200
C3571       C  0.50220394  0.92310532  0.92116683     1.05500
C3572       C  0.50255127  0.92363070  0.57774200     1.08100
C3573       C  0.57979590  0.50607153  0.92214011     1.05600
C3574       C  0.92305862  0.50100754  0.92176405     1.06000
C3575       C  0.92184055  0.49775041  0.57833087     1.05600
C3576       C  0.57822243  0.50189249  0.57753166     1.05100
C3577       C  0.57936794  0.92491801  0.49531697     1.05600
C3578       C  0.92094044  0.92150861  0.49842233     1.05100
H3579       H  0.54455228  0.95805762  0.54252289     0.31700
O3580       O  0.53134370  0.97045630  0.52979065    -1.30800
H3581       H  0.95915409  0.95727626  0.95521964     0.31800
O3582       O  0.97149803  0.97021567  0.96826346    -1.32200
O3583       O  0.49847037  0.70138097  0.66272783    -0.87600
O3584       O  0.49767100  0.70109710  0.83726653    -0.87800
O3585       O  0.54726865  0.66237074  0.74828100    -0.89500
O3586       O  0.95130061  0.66182834  0.75236746    -0.88200
O3587       O  0.91358645  0.69856434  0.75328471    -0.87800
O3588       O  0.58464639  0.69921248  0.74935312    -0.89200
O3589       O  0.49778670  0.66387900  0.80010918    -0.87600
O3590       O  0.49830296  0.66398803  0.69947237    -0.87200
Zr3591     Zr  0.49776269  0.68854190  0.74986539     2.84300
O3592       O  0.97000193  0.71907714  0.78217874    -1.09200
O3593       O  0.52879198  0.71924453  0.71891222    -1.09900
C3594       C  0.49883057  0.67316720  0.67132120     1.05500
C3595       C  0.49781404  0.67291489  0.82830023     1.05400
C3596       C  0.57575808  0.67105927  0.74827873     1.08400
C3597       C  0.92284386  0.67044111  0.75336134     1.06200
H3598       H  0.54206550  0.70600151  0.79358802     0.31800
O3599       O  0.52930957  0.71891765  0.78092687    -1.30200
H3600       H  0.95576077  0.70471504  0.70759700     0.31400
O3601       O  0.96859832  0.71777146  0.72003785    -1.31800
O3602       O  0.49890476  0.80074731  0.83670978    -0.87600
O3603       O  0.49759377  0.80018393  0.66346299    -0.89100
O3604       O  0.58582765  0.74848871  0.79955946    -0.87700
O3605       O  0.91347840  0.74740126  0.80122117    -0.87700
O3606       O  0.91094402  0.74688524  0.70242039    -0.87500
O3607       O  0.58500893  0.74786498  0.69971044    -0.87300
O3608       O  0.54980251  0.83605193  0.75136783    -0.87600
O3609       O  0.94892286  0.83579679  0.74802970    -0.87100
O3610       O  0.58699280  0.79861223  0.75067587    -0.88200
O3611       O  0.91180586  0.79821958  0.74993248    -0.87300
O3612       O  0.54860356  0.74994355  0.83679356    -0.87700
O3613       O  0.54744066  0.75047414  0.66261129    -0.87400
O3614       O  0.94805465  0.74928300  0.66499568    -0.87100
O3615       O  0.95128525  0.75003054  0.83795972    -0.87500
O3616       O  0.49826100  0.83778982  0.79952376    -0.87800
O3617       O  0.49954496  0.83750322  0.69991773    -0.89100
Zr3618     Zr  0.49860288  0.75062693  0.81156765     2.83100
Zr3619     Zr  0.49763937  0.75058557  0.68848926     2.83500
Zr3620     Zr  0.56036056  0.74951862  0.74984108     2.84100
Zr3621     Zr  0.93792520  0.74881383  0.75128919     2.83400
Zr3622     Zr  0.49879701  0.81216117  0.74990973     2.84200
O3623       O  0.96810899  0.77994368  0.71975390    -1.09700
O3624       O  0.52999402  0.78121589  0.78079675    -1.09200
C3625       C  0.49831474  0.82894793  0.82772259     1.05500
C3626       C  0.49906915  0.82843229  0.67169999     1.08100
C3627       C  0.57695156  0.74865541  0.82776031     1.05600
C3628       C  0.92290473  0.74800975  0.82920297     1.06000
C3629       C  0.91971661  0.74826274  0.67423485     1.05600
C3630       C  0.57578386  0.74900121  0.67164137     1.05100
C3631       C  0.57820588  0.82687285  0.75104464     1.05600
C3632       C  0.92068895  0.82639040  0.74861887     1.05100
H3633       H  0.54259442  0.79364153  0.70626801     0.31700
O3634       O  0.52960693  0.78100740  0.71902305    -1.30800
H3635       H  0.95588552  0.79391389  0.79420620     0.31800
O3636       O  0.96874321  0.78110888  0.78147755    -1.32200
O3637       O  0.83835164  0.00091059  0.69909123    -0.87600
O3638       O  0.66216561  0.99892339  0.69968334    -0.87800
O3639       O  0.75187818  0.95258664  0.66042529    -0.89500
O3640       O  0.74588218  0.55072948  0.66491010    -0.88200
O3641       O  0.74698832  0.58739921  0.70225622    -0.87800
O3642       O  0.75147918  0.91491898  0.69705192    -0.89200
O3643       O  0.69944196  0.00071585  0.66241957    -0.87600
O3644       O  0.80037817  0.00224837  0.66238125    -0.87200
Zr3645     Zr  0.74996947  0.00141927  0.68724281     2.84300
O3646       O  0.71777399  0.53046166  0.71977382    -1.09200
O3647       O  0.78174882  0.97021630  0.71736481    -1.09900
C3648       C  0.82888452  0.00172123  0.67112126     1.05500
C3649       C  0.67104757  0.99952707  0.67144016     1.05400
C3650       C  0.75224550  0.92432226  0.66900530     1.08400
C3651       C  0.74557313  0.57893849  0.67400945     1.06200
H3652       H  0.70663655  0.95598487  0.70449211     0.31800
O3653       O  0.71939984  0.96881912  0.71729745    -1.30200
H3654       H  0.79284853  0.54403886  0.70687188     0.31400
O3655       O  0.78048504  0.53088380  0.71969074    -1.31800
O3656       O  0.66328452  0.99603145  0.79909432    -0.87600
O3657       O  0.83937518  0.00036133  0.79797584    -0.89100
O3658       O  0.70229919  0.91125233  0.75069441    -0.87700
O3659       O  0.69785051  0.58457667  0.75343088    -0.87700
O3660       O  0.79913384  0.58629678  0.74998577    -0.87500
O3661       O  0.80119527  0.91314949  0.74647239    -0.87300
O3662       O  0.75040388  0.94962374  0.83576506    -0.87600
O3663       O  0.75200460  0.54840368  0.83755109    -0.87100
O3664       O  0.75140440  0.91316363  0.79792957    -0.88200
O3665       O  0.75039839  0.58578550  0.80076041    -0.87300
O3666       O  0.66446360  0.94795639  0.75098446    -0.87700
O3667       O  0.83876875  0.95028053  0.74657850    -0.87400
O3668       O  0.83692037  0.54952218  0.74945719    -0.87100
O3669       O  0.66107006  0.54721945  0.75010176    -0.87500
O3670       O  0.70121139  0.99812769  0.83586173    -0.87800
O3671       O  0.80219910  0.99842767  0.83537392    -0.89100
Zr3672     Zr  0.68833962  0.99863312  0.74930822     2.83100
Zr3673     Zr  0.81314166  0.00051774  0.74864363     2.83500
Zr3674     Zr  0.75135229  0.93832650  0.74793344     2.84100
Zr3675     Zr  0.74901295  0.56087896  0.75111138     2.83400
Zr3676     Zr  0.75149226  0.99936491  0.81088184     2.84200
O3677       O  0.78134344  0.53033374  0.78138722    -1.09700
O3678       O  0.72055525  0.96849324  0.77961351    -1.09200
C3679       C  0.67276900  0.99636565  0.82710911     1.05500
C3680       C  0.83055709  0.99916815  0.82617339     1.08100
C3681       C  0.67379957  0.91983905  0.75185394     1.05600
C3682       C  0.66944479  0.57543339  0.75235376     1.06000
C3683       C  0.82764700  0.57759984  0.74924916     1.05600
C3684       C  0.82951897  0.92210131  0.74608062     1.05100
C3685       C  0.75041632  0.92163298  0.82628385     1.05600
C3686       C  0.75177290  0.57667078  0.82878652     1.05100
H3687       H  0.79571984  0.95585299  0.79174873     0.31700
O3688       O  0.78265927  0.96878385  0.77934524    -1.30800
H3689       H  0.70601373  0.54178680  0.79481194     0.31800
O3690       O  0.71879746  0.52922696  0.78180070    -1.32200
O3691       O  0.69807837  0.66564082  0.00100257    -0.87600
O3692       O  0.70349460  0.83915960  0.99672063    -0.87800
O3693       O  0.66144808  0.75132006  0.55168417    -0.89500
O3694       O  0.66307726  0.75138321  0.94947180    -0.88200
O3695       O  0.70004332  0.75027763  0.91200321    -0.87800
O3696       O  0.69925366  0.74925008  0.58854389    -0.89200
O3697       O  0.66552952  0.80266663  0.99717623    -0.87600
O3698       O  0.66155430  0.70366427  0.99944306    -0.87200
Zr3699     Zr  0.68876550  0.75198811  0.99879761     2.84300
O3700       O  0.72023863  0.78174083  0.96715394    -1.09200
O3701       O  0.71688774  0.72013301  0.53209259    -1.09900
C3702       C  0.66986455  0.67536525  0.00027608     1.05500
C3703       C  0.67499689  0.83066479  0.99702927     1.05400
C3704       C  0.67079864  0.74979137  0.57970237     1.08400
C3705       C  0.67167462  0.75105485  0.92124883     1.06200
H3706       H  0.70563764  0.79567301  0.54463274     0.31800
O3707       O  0.71814908  0.78253687  0.53179860    -1.30200
H3708       H  0.70547109  0.70678533  0.95546807     0.31400
O3709       O  0.71879597  0.71964704  0.96814549    -1.31800
O3710       O  0.80301856  0.83621974  0.99674637    -0.87600
O3711       O  0.79904384  0.66309391  0.00039253    -0.89100
O3712       O  0.75079788  0.80123999  0.58630892    -0.87700
O3713       O  0.75239663  0.79837130  0.91013779    -0.87700
O3714       O  0.75058148  0.69893400  0.91269121    -0.87500
O3715       O  0.75000212  0.70069768  0.58761834    -0.87300
O3716       O  0.83615877  0.74918092  0.55082633    -0.87600
O3717       O  0.83828851  0.74904919  0.94993771    -0.87100
O3718       O  0.79863346  0.74948180  0.58796982    -0.88200
O3719       O  0.80094486  0.74879582  0.91256769    -0.87300
O3720       O  0.75223640  0.83795695  0.54874298    -0.87700
O3721       O  0.74735398  0.66367703  0.55064605    -0.87400
O3722       O  0.74944209  0.66243788  0.95036747    -0.87100
O3723       O  0.75290574  0.83589719  0.94692831    -0.87500
O3724       O  0.83975204  0.79846773  0.99819232    -0.87800
O3725       O  0.83750078  0.69923617  0.00148529    -0.89100
Zr3726     Zr  0.75234040  0.81214230  0.99770837     2.83100
Zr3727     Zr  0.74940586  0.68878798  0.99956061     2.83500
Zr3728     Zr  0.74899150  0.75069831  0.56233966     2.84100
Zr3729     Zr  0.75063230  0.74936308  0.93693727     2.83400
Zr3730     Zr  0.81297840  0.74939953  0.99932716     2.84200
O3731       O  0.78149805  0.71847620  0.96837327    -1.09700
O3732       O  0.78039666  0.78101281  0.53092069    -1.09200
C3733       C  0.83127862  0.82679317  0.99680094     1.05500
C3734       C  0.82759636  0.67136181  0.00162561     1.08100
C3735       C  0.75175266  0.82930315  0.57696152     1.05600
C3736       C  0.75311758  0.82665638  0.91878310     1.06000
C3737       C  0.74973953  0.67088242  0.92205417     1.05600
C3738       C  0.74910795  0.67241975  0.57882612     1.05100
C3739       C  0.82699213  0.74875379  0.57906318     1.05600
C3740       C  0.82922517  0.74928111  0.92184637     1.05100
H3741       H  0.79212616  0.70616317  0.54392150     0.31700
O3742       O  0.77942530  0.71908165  0.53133642    -1.30800
H3743       H  0.79566722  0.79235958  0.95458273     0.31800
O3744       O  0.78261030  0.78006437  0.96741857    -1.32200
C3745       C  0.74479662  0.60323454  0.64994500    -0.07300
C3746       C  0.75452809  0.59553773  0.62028967    -0.18400
C3747       C  0.75783716  0.61752493  0.59731438     0.09900
C3748       C  0.74934199  0.64833083  0.60306005    -0.07200
C3749       C  0.73906357  0.65604695  0.63259106    -0.18400
C3750       C  0.73636163  0.63406330  0.65575212     0.10000
S3751       S  0.77497885  0.60468131  0.56199923    -0.33400
S3752       S  0.71949357  0.64668457  0.69116252    -0.33400
H3753       H  0.69957330  0.62132714  0.69294633     0.28000
H3754       H  0.79521107  0.62977902  0.55991968     0.28000
H3755       H  0.76055674  0.57216809  0.61499791     0.18600
H3756       H  0.73191197  0.67929540  0.63750872     0.18600
C3757       C  0.75294264  0.90054503  0.64496191    -0.07300
C3758       C  0.73206549  0.87615490  0.64740202    -0.18400
C3759       C  0.73081552  0.85311591  0.62527219     0.09900
C3760       C  0.75160586  0.85364022  0.60041913    -0.07200
C3761       C  0.77238102  0.87814448  0.59773472    -0.18400
C3762       C  0.77335074  0.90154371  0.61967393     0.10800
S3763       S  0.70097025  0.82468374  0.62917561    -0.33400
S3764       S  0.80167455  0.93133406  0.61425052    -0.33400
H3765       H  0.80676585  0.93733197  0.64536384     0.28000
H3766       H  0.69457805  0.82264037  0.59768448     0.28000
H3767       H  0.71585641  0.87555051  0.66627549     0.18600
H3768       H  0.78837652  0.87876820  0.57868473     0.18600
C3769       C  0.75329809  0.85064295  0.89475679    -0.07300
C3770       C  0.73371421  0.87597288  0.89860669    -0.18400
C3771       C  0.73143912  0.89887714  0.87636959     0.09900
C3772       C  0.74991937  0.89717291  0.84972407    -0.07200
C3773       C  0.76937727  0.87177631  0.84573305    -0.18400
C3774       C  0.77154123  0.84875692  0.86792783     0.10000
S3775       S  0.70317519  0.92852498  0.88279144    -0.33400
S3776       S  0.79926427  0.81869661  0.86114503    -0.33400
H3777       H  0.80732599  0.81463076  0.89201089     0.28000
H3778       H  0.69570864  0.93230653  0.85180330     0.28000
H3779       H  0.71921561  0.87744958  0.91875877     0.18600
H3780       H  0.78386276  0.87035036  0.82556628     0.18600
C3781       C  0.75250574  0.60057073  0.85277473    -0.07300
C3782       C  0.73439912  0.59647890  0.87906661    -0.18400
C3783       C  0.73233028  0.61921585  0.90154735     0.09900
C3784       C  0.74949083  0.64658800  0.89833635    -0.07200
C3785       C  0.76757031  0.65066644  0.87198620    -0.18400
C3786       C  0.76950347  0.62801260  0.84942133     0.10000
S3787       S  0.70587513  0.61256632  0.93268001    -0.33400
S3788       S  0.79516759  0.63511075  0.81768965    -0.33400
H3789       H  0.80553209  0.60469871  0.81518241     0.28000
H3790       H  0.69479221  0.64282857  0.93362904     0.28000
H3791       H  0.72077106  0.57584968  0.88158329     0.18600
H3792       H  0.78106120  0.67136534  0.86932216     0.18600
C3793       C  0.89872970  0.64639441  0.75335786    -0.07300
C3794       C  0.87040440  0.65295745  0.73907086    -0.18400
C3795       C  0.84740307  0.63076919  0.73602419     0.09900
C3796       C  0.85190177  0.60144865  0.74895575    -0.07200
C3797       C  0.88029273  0.59478303  0.76301280    -0.18400
C3798       C  0.90358534  0.61671328  0.76543624     0.10000
S3799       S  0.81410596  0.64081941  0.71334010    -0.33400
S3800       S  0.93820865  0.60537258  0.78537344    -0.33400
H3801       H  0.94029656  0.63262202  0.80239703     0.28000
H3802       H  0.81219860  0.61226477  0.69855023     0.28000
H3803       H  0.86659453  0.67523652  0.72887889     0.18600
H3804       H  0.88416869  0.57244663  0.77306035     0.18600
C3805       C  0.89668614  0.85004748  0.74812039    -0.07300
C3806       C  0.89257560  0.86702585  0.72124513    -0.18400
C3807       C  0.87008200  0.88995401  0.71949152     0.09900
C3808       C  0.85292965  0.89767712  0.74586363    -0.07200
C3809       C  0.85658079  0.88017472  0.77248883    -0.18400
C3810       C  0.87784261  0.85609720  0.77376127     0.10000
S3811       S  0.86293841  0.90657110  0.68250186    -0.33400
S3812       S  0.87908186  0.83371074  0.80845949    -0.33400
H3813       H  0.90972858  0.82368828  0.80610281     0.28000
H3814       H  0.83222018  0.91516023  0.68801333     0.28000
H3815       H  0.90621259  0.86159304  0.70116197     0.18600
H3816       H  0.84254929  0.88518483  0.79240588     0.18600
C3817       C  0.59992837  0.64673123  0.74799354    -0.07300
C3818       C  0.59139065  0.61658392  0.75543207    -0.18400
C3819       C  0.61326902  0.59319594  0.75849317     0.09900
C3820       C  0.64490070  0.59943106  0.75284267    -0.07200
C3821       C  0.65335479  0.62959747  0.74563427    -0.18400
C3822       C  0.63150158  0.65282306  0.74215003     0.10000
S3823       S  0.59903308  0.55667761  0.77147549    -0.33400
S3824       S  0.64570515  0.68882468  0.72781415    -0.33400
H3825       H  0.62236930  0.69147150  0.70555301     0.28000
H3826       H  0.62267137  0.55265468  0.79320936     0.28000
H3827       H  0.56741840  0.61113770  0.75975414     0.18600
H3828       H  0.67729559  0.63515672  0.74154424     0.18600
C3829       C  0.60265824  0.85063407  0.75102347    -0.07300
C3830       C  0.62962608  0.84589060  0.76832239    -0.18400
C3831       C  0.65296177  0.86812145  0.76978255     0.09900
C3832       C  0.64960845  0.89581076  0.75323473    -0.07200
C3833       C  0.62251468  0.90053792  0.73629527    -0.18400
C3834       C  0.59952092  0.87823178  0.73445721     0.10000
S3835       S  0.68558247  0.86018839  0.79418780    -0.33400
S3836       S  0.56794065  0.88573947  0.70868027    -0.33400
H3837       H  0.56584476  0.85557352  0.69771307     0.28000
H3838       H  0.68850948  0.89038197  0.80492237     0.28000
H3839       H  0.63224509  0.82498722  0.78139136     0.18600
H3840       H  0.61977429  0.92136873  0.72313933     0.18600
C3841       C  0.89543681  0.74915404  0.65050775    -0.07300
C3842       C  0.87185396  0.72716773  0.65088189    -0.18400
C3843       C  0.84940771  0.72623828  0.62777038     0.09900
C3844       C  0.85074522  0.74753689  0.60335217    -0.07200
C3845       C  0.87407548  0.76975207  0.60334123    -0.18400
C3846       C  0.89574941  0.77133610  0.62704426     0.10000
S3847       S  0.81999966  0.69713900  0.63079807    -0.33400
S3848       S  0.92174775  0.80355039  0.62734289    -0.33400
H3849       H  0.92291672  0.80656533  0.65938335     0.28000
H3850       H  0.81585489  0.69290588  0.59922909     0.28000
H3851       H  0.87120181  0.71029174  0.66902696     0.18600
H3852       H  0.87453160  0.78692327  0.58547710     0.18600
C3853       C  0.59984885  0.74941111  0.64803682    -0.07300
C3854       C  0.61247223  0.72159458  0.63805661    -0.18400
C3855       C  0.63588693  0.72083331  0.61592582     0.09900
C3856       C  0.64686170  0.74866782  0.60351850    -0.07200
C3857       C  0.63401255  0.77638032  0.61344992    -0.18400
C3858       C  0.61078244  0.77710400  0.63560646     0.10000
S3859       S  0.65009682  0.68355476  0.60464915    -0.33400
S3860       S  0.59575856  0.81404051  0.64660060    -0.33400
H3861       H  0.58883831  0.80637782  0.67699114     0.28000
H3862       H  0.67267997  0.69246779  0.58350891     0.28000
H3863       H  0.60396692  0.70031115  0.64754972     0.18600
H3864       H  0.64224527  0.79770130  0.60398092     0.18600
C3865       C  0.64706301  0.75078852  0.89766547    -0.07300
C3866       C  0.65196658  0.73395322  0.87072142    -0.18400
C3867       C  0.62918429  0.73175912  0.84814876     0.09900
C3868       C  0.60104239  0.74781119  0.85177923    -0.07200
C3869       C  0.59596420  0.76434420  0.87886798    -0.18400
C3870       C  0.61844261  0.76591451  0.90185199     0.10000
S3871       S  0.63695026  0.70674831  0.81621017    -0.33400
S3872       S  0.61059556  0.78920087  0.93516034    -0.33400
H3873       H  0.57821986  0.78741763  0.93307987     0.28000
H3874       H  0.60677054  0.69494027  0.81462530     0.28000
H3875       H  0.67338518  0.72149279  0.86764162     0.18600
H3876       H  0.57460928  0.77694681  0.88169596     0.18600
C3877       C  0.85316428  0.74985836  0.89826355    -0.07300
C3878       C  0.85053251  0.72932002  0.87381103    -0.18400
C3879       C  0.87344730  0.72736943  0.85153964     0.09900
C3880       C  0.89925096  0.74707659  0.85321636    -0.07200
C3881       C  0.90188167  0.76761198  0.87774871    -0.18400
C3882       C  0.87895837  0.76953026  0.90005848     0.10000
S3883       S  0.86905547  0.69817736  0.82267806    -0.33400
S3884       S  0.88326152  0.79860261  0.92910330    -0.33400
H3885       H  0.85159592  0.80518766  0.93164009     0.28000
H3886       H  0.90069913  0.69116782  0.82078129     0.28000
H3887       H  0.83095248  0.71392515  0.87261847     0.18600
H3888       H  0.92139200  0.78308518  0.87892561     0.18600
C3889       C  0.89719368  0.89736777  0.49876302    -0.07300
C3890       C  0.87520565  0.90077350  0.98202951    -0.18400
C3891       C  0.85252966  0.87812070  0.97950814     0.09900
C3892       C  0.85216784  0.85084696  0.49649103    -0.07200
C3893       C  0.87598494  0.84974820  0.51815875    -0.18400
C3894       C  0.89811910  0.87291573  0.51989626     0.10000
S3895       S  0.82079558  0.88561239  0.95381891    -0.33400
S3896       S  0.92565925  0.87073958  0.55080340    -0.33400
H3897       H  0.92907964  0.90247115  0.55473690     0.28000
H3898       H  0.81904036  0.85547023  0.94262278     0.28000
H3899       H  0.87228761  0.92186807  0.96933643     0.18600
H3900       H  0.87659118  0.83133204  0.53474373     0.18600
C3901       C  0.89341998  0.59909201  0.50022490    -0.07300
C3902       C  0.89681458  0.62438103  0.51974475    -0.18400
C3903       C  0.87459441  0.64756456  0.52085901     0.09900
C3904       C  0.84859149  0.64606228  0.50139427    -0.07200
C3905       C  0.84621325  0.62133556  0.98334493    -0.18400
C3906       C  0.86790927  0.59776301  0.98185834     0.10000
S3907       S  0.88007478  0.67760706  0.54865388    -0.33400
S3908       S  0.86044962  0.56710004  0.95523638    -0.33400
H3909       H  0.89123465  0.56430209  0.94549168     0.28000
H3910       H  0.84857843  0.68081847  0.55566131     0.28000
H3911       H  0.91667144  0.62576585  0.53478117     0.18600
H3912       H  0.82610686  0.62034456  0.96860306     0.18600
C3913       C  0.60321300  0.90098636  0.49485043    -0.07300
C3914       C  0.59881371  0.87578123  0.51412163    -0.18400
C3915       C  0.62120128  0.85310486  0.51697591     0.09900
C3916       C  0.64830711  0.85468557  0.49911830    -0.07200
C3917       C  0.65711162  0.88238491  0.98160278    -0.18400
C3918       C  0.63480918  0.90548187  0.97996738     0.10000
S3919       S  0.61467138  0.82417573  0.54555779    -0.33400
S3920       S  0.64402004  0.93881078  0.95744209    -0.33400
H3921       H  0.61461673  0.94087220  0.94390727     0.28000
H3922       H  0.64574663  0.82269218  0.55478085     0.28000
H3923       H  0.57827706  0.87442193  0.52822872     0.18600
H3924       H  0.67884628  0.88553938  0.96974669     0.18600
C3925       C  0.59939107  0.60468468  0.50222117    -0.07300
C3926       C  0.59451054  0.63287438  0.98674688    -0.18400
C3927       C  0.61733065  0.65531534  0.98424371     0.09900
C3928       C  0.64410385  0.65114860  0.50100617    -0.07200
C3929       C  0.64429147  0.62917003  0.52435494    -0.18400
C3930       C  0.62209266  0.60605434  0.52531234     0.10000
S3931       S  0.61033677  0.68596428  0.95748994    -0.33400
S3932       S  0.62348256  0.57952683  0.55689478    -0.33400
H3933       H  0.59137585  0.57533204  0.55901499     0.28000
H3934       H  0.64076027  0.68670971  0.94625277     0.28000
H3935       H  0.57361597  0.63519473  0.97329205     0.18600
H3936       H  0.66161474  0.63031211  0.54222569     0.18600
C3937       C  0.85383019  0.49774084  0.85138521    -0.07300
C3938       C  0.87785394  0.51914915  0.84946863    -0.18400
C3939       C  0.90015996  0.52144493  0.87249342     0.09900
C3940       C  0.89922126  0.50110606  0.89764348    -0.07200
C3941       C  0.87575709  0.98236416  0.89872612    -0.18400
C3942       C  0.85391930  0.97924947  0.87533538     0.10000
S3943       S  0.92772126  0.55217902  0.86937578    -0.33400
S3944       S  0.82699374  0.94790440  0.87816689    -0.33400
H3945       H  0.82550107  0.94208891  0.84653481     0.28000
H3946       H  0.93006748  0.55718957  0.90098297     0.28000
H3947       H  0.87847926  0.53512524  0.83052436     0.18600
H3948       H  0.87480445  0.96687884  0.91805256     0.18600
C3949       C  0.60351882  0.50620283  0.89811109    -0.07300
C3950       C  0.60211598  0.97654798  0.87452291    -0.18400
C3951       C  0.62520917  0.97386546  0.85225750     0.09900
C3952       C  0.64921159  0.50067506  0.85273466    -0.07200
C3953       C  0.65241482  0.52224627  0.87636758    -0.18400
C3954       C  0.62964001  0.52557468  0.89880337     0.10000
S3955       S  0.62326692  0.94118615  0.82695216    -0.33400
S3956       S  0.63446764  0.55595728  0.92639220    -0.33400
H3957       H  0.60281894  0.56257019  0.92933435     0.28000
H3958       H  0.65441078  0.94057985  0.81822902     0.28000
H3959       H  0.58387704  0.95960254  0.87537052     0.18600
H3960       H  0.67228620  0.53730317  0.87674359     0.18600
C3961       C  0.60218321  0.50126619  0.60173543    -0.07300
C3962       C  0.62737481  0.98442683  0.59730776    -0.18400
C3963       C  0.64993953  0.98211724  0.62010848     0.09900
C3964       C  0.64742983  0.49573426  0.64815381    -0.07200
C3965       C  0.62168065  0.51475412  0.65217810    -0.18400
C3966       C  0.59918055  0.51777130  0.62945902     0.10000
S3967       S  0.68137049  0.95586305  0.61334359    -0.33400
S3968       S  0.56797210  0.54401816  0.63709000    -0.33400
H3969       H  0.56601366  0.55516319  0.60701037     0.28000
H3970       H  0.68344589  0.94577531  0.64382555     0.28000
H3971       H  0.62992214  0.97093181  0.57664720     0.18600
H3972       H  0.61952027  0.52821241  0.67290744     0.18600
C3973       C  0.85170449  0.50291676  0.64785555    -0.07300
C3974       C  0.87699169  0.98044088  0.64950928    -0.18400
C3975       C  0.89838490  0.97689568  0.62591509     0.09900
C3976       C  0.89777590  0.49770628  0.60230920    -0.07200
C3977       C  0.86911871  0.51112195  0.59562795    -0.18400
C3978       C  0.84620101  0.51389819  0.61789058     0.10000
S3979       S  0.92667895  0.94693949  0.62995290    -0.33400
S3980       S  0.81151190  0.53356866  0.60680203    -0.33400
H3981       H  0.80996024  0.55081069  0.63397556     0.28000
H3982       H  0.92980115  0.94083562  0.59854073     0.28000
H3983       H  0.87896580  0.96628464  0.66964962     0.18600
H3984       H  0.86476792  0.52040735  0.57305453     0.18600
C3985       C  0.49801004  0.64905682  0.85228051    -0.07300
C3986       C  0.97517648  0.64875177  0.87423135    -0.18400
C3987       C  0.97302994  0.62633970  0.89714812     0.09900
C3988       C  0.49528855  0.60309202  0.89767951    -0.07200
C3989       C  0.51645584  0.60100216  0.87350058    -0.18400
C3990       C  0.51829609  0.62374693  0.85113845     0.10000
S3991       S  0.93908870  0.62735418  0.92121061    -0.33400
S3992       S  0.54824558  0.61982563  0.82285372    -0.33400
H3993       H  0.55433057  0.65128916  0.81999378     0.28000
H3994       H  0.94130914  0.59797638  0.93378962     0.28000
H3995       H  0.95672839  0.66534658  0.87177728     0.18600
H3996       H  0.53251451  0.58198068  0.87260952     0.18600
C3997       C  0.49822993  0.85301668  0.85168558    -0.07300
C3998       C  0.51804934  0.84964206  0.87689393    -0.18400
C3999       C  0.52057415  0.87245893  0.89927516     0.09900
C4000       C  0.50220765  0.89915851  0.89713063    -0.07200
C4001       C  0.99036896  0.90584505  0.87009212    -0.18400
C4002       C  0.98714686  0.88307037  0.84772806     0.10000
S4003       S  0.54894034  0.86681333  0.92898070    -0.33400
S4004       S  0.96095698  0.89115167  0.81673992    -0.33400
H4005       H  0.94828834  0.86159415  0.81618775     0.28000
H4006       H  0.55804496  0.89768134  0.93040583     0.28000
H4007       H  0.53256069  0.82950077  0.87862394     0.18600
H4008       H  0.97821610  0.92731033  0.86701485     0.18600
C4009       C  0.50349962  0.89983487  0.60237487    -0.07300
C4010       C  0.50178168  0.86891480  0.59375164    -0.18400
C4011       C  0.50121934  0.84529820  0.61527719     0.09900
C4012       C  0.50080932  0.85225866  0.64707052    -0.07200
C4013       C  0.99824963  0.88099355  0.65534386    -0.18400
C4014       C  0.99925307  0.90496031  0.63410227     0.10000
S4015       S  0.50150649  0.80706698  0.59977057    -0.33400
S4016       S  0.00363282  0.94327164  0.64925652    -0.33400
H4017       H  0.99037062  0.93744210  0.67805114     0.28000
H4018       H  0.52900299  0.79905632  0.61496242     0.28000
H4019       H  0.50122888  0.86276004  0.56975660     0.18600
H4020       H  0.99830544  0.88666213  0.67943258     0.18600
C4021       C  0.49740329  0.60272726  0.60190322    -0.07300
C4022       C  0.01282875  0.63013059  0.59623987    -0.18400
C4023       C  0.01525883  0.65266003  0.61899421     0.09900
C4024       C  0.49906662  0.64939983  0.64701533    -0.07200
C4025       C  0.48239100  0.62232645  0.65192726    -0.18400
C4026       C  0.48123329  0.59907596  0.62978747     0.10000
S4027       S  0.03784279  0.68653732  0.61100298    -0.33400
S4028       S  0.45777386  0.56565436  0.63705059    -0.33400
H4029       H  0.44444305  0.57582686  0.66457920     0.28000
H4030       H  0.05139744  0.67613282  0.58366453     0.28000
H4031       H  0.02362387  0.63385400  0.57422743     0.18600
H4032       H  0.46978969  0.61960270  0.67312505     0.18600
loop_ 
_geom_bond_atom_site_label_1 
_geom_bond_atom_site_label_2 
_geom_bond_distance 
_geom_bond_site_symmetry_2 
_ccdc_geom_bond_type 
O1          Zr37   2.425       .  S
O1           C12   1.289   1_455  A
O2          Zr36   2.436       .  S
O2           C13   1.293       .  A
O3           Zr9   2.420   1_455  S
O3           C14   1.289       .  A
O4        Zr2025   2.442       .  S
O4           C15   1.294       .  A
O5          Zr39   2.437   1_546  S
O5           C15   1.292       .  A
O6          Zr38   2.421       .  S
O6           C14   1.289       .  A
O7         Zr513   2.437       .  S
O7           C13   1.292       .  A
O8           Zr9   2.457       .  S
O8           C12   1.296       .  A
Zr9        O2020   2.428   1_554  S
Zr9         O511   2.440   1_554  S
Zr9          O11   2.337   1_655  S
Zr9        O2530   2.339   1_554  S
Zr9        O2035   2.333       .  S
Zr9         O521   2.341   1_654  S
O10       Zr2529   2.340       .  S
O10       Zr2052   2.339       .  S
O10        Zr543   2.341   1_545  S
O11         Zr37   2.331       .  S
O11         Zr38   2.337       .  S
C12         C493   1.482       .  S
C13         C460   1.476       .  S
C14         C397   1.460       .  S
C15         C373   1.485       .  S
H16          O17   0.967       .  S
O17         Zr36   2.343   1_455  S
O17        Zr513   2.351   1_455  S
O17        Zr542   2.338       .  S
H18          O19   0.964       .  S
O19         Zr39   2.345   1_545  S
O19       Zr2025   2.340   1_554  S
O19       Zr2053   2.335       .  S
O20       Zr1044   2.445       .  S
O20          C43   1.294   1_655  A
O21       Zr1045   2.432       .  S
O21          C44   1.289       .  A
O22        Zr542   2.439       .  S
O22          C45   1.292   1_545  A
O23        Zr543   2.442       .  S
O23          C46   1.293       .  A
O24         Zr39   2.426       .  S
O24          C47   1.291       .  A
O25         Zr38   2.434       .  S
O25          C48   1.292       .  A
O26         Zr40   2.409   1_556  S
O26          C49   1.288       .  A
O27       Zr2056   2.451       .  S
O27          C50   1.294       .  A
O28       Zr1046   2.448   1_556  S
O28          C49   1.294       .  A
O29       Zr1047   2.431       .  S
O29          C50   1.291       .  A
O30         Zr36   2.439   1_465  S
O30          C45   1.292       .  A
O31         Zr37   2.422       .  S
O31          C48   1.288       .  A
O32       Zr2053   2.428   1_565  S
O32          C47   1.290       .  A
O33       Zr2052   2.422   1_565  S
O33          C46   1.289       .  A
O34        Zr544   2.442       .  S
O34          C43   1.293       .  A
O35         Zr40   2.454       .  S
O35          C44   1.296       .  A
Zr36       O1028   2.442   1_645  S
Zr36       O2049   2.428       .  S
Zr36       O2026   2.339       .  S
Zr36       O1050   2.329   1_645  S
Zr36       O3078   2.343   1_545  S
Zr37       O1029   2.425   1_545  S
Zr37       O2048   2.412   1_455  S
Zr37       O2035   2.338   1_455  S
Zr37       O3065   2.341   1_445  S
Zr37       O1060   2.340   1_545  S
Zr38        O526   2.426   1_554  S
Zr38       O1036   2.436   1_544  S
Zr38        O521   2.339   1_554  S
Zr38       O1554   2.331   1_544  S
Zr38       O1060   2.338   1_545  S
Zr39        O527   2.437   1_554  S
Zr39       O1037   2.446       .  S
Zr39        O514   2.341   1_564  S
Zr39       O1049   2.335       .  S
Zr39       O1566   2.335   1_554  S
Zr40       O2043   2.434   1_455  S
Zr40        O538   2.450   1_554  S
Zr40         O52   2.344       .  S
Zr40       O2057   2.329   1_455  S
Zr40        O546   2.344   1_554  S
Zr40       O2574   2.338   1_454  S
O41       Zr3061   2.339       .  S
O41       Zr1047   2.337   1_554  S
O41       Zr2056   2.335   1_554  S
O42       Zr1044   2.340   1_455  S
O42       Zr1550   2.338       .  S
O42        Zr544   2.334       .  S
C43         C472   1.483       .  S
C44         C481   1.501       .  S
C45         C421   1.484       .  S
C46         C412   1.469       .  S
C47         C448   1.480       .  S
C48         C433   1.470       .  S
C49         C385   1.472       .  S
C50         C361   1.482   1_556  S
H51          O52   0.964       .  S
O52       Zr1045   2.333       .  S
O52       Zr1046   2.338       .  S
H53          O54   0.965       .  S
O54       Zr3060   2.344       .  S
O54       Zr1551   2.337       .  S
O54       Zr2560   2.343       .  S
O55         Zr91   2.436   1_455  S
O55          C66   1.292       .  A
O56         Zr90   2.440       .  S
O56          C67   1.292       .  A
O57         Zr63   2.419   1_455  S
O57          C68   1.289       .  A
O58       Zr2079   2.442       .  S
O58          C69   1.293       .  A
O59         Zr93   2.423       .  S
O59          C69   1.290       .  A
O60         Zr92   2.440       .  S
O60          C68   1.292       .  A
O61         Zr63   2.449   1_455  S
O61          C67   1.294   1_455  A
O62         Zr63   2.436   1_455  S
O62          C66   1.292       .  A
Zr63       O2074   2.424       .  S
Zr63         O65   2.342   1_655  S
Zr63         O71   2.336   1_655  S
Zr63       O2080   2.333       .  S
Zr63       O2089   2.343       .  S
O64         Zr93   2.337       .  S
O64       Zr2079   2.338       .  S
O64       Zr2106   2.339       .  S
O65         Zr91   2.339   1_455  S
O65         Zr92   2.338       .  S
C66         C496   1.478       .  S
C67         C457   1.481       .  S
C68         C289   1.485       .  S
C69         C265   1.476       .  S
H70          O71   0.962       .  S
O71         Zr90   2.337   1_455  S
O71         Zr92   2.343       .  S
H72          O73   0.965       .  S
O73         Zr93   2.345       .  S
O73       Zr2079   2.341       .  S
O73       Zr2107   2.343       .  S
O74         Zr90   2.431       .  S
O74          C97   1.291       .  A
O75         Zr91   2.429   1_455  S
O75          C98   1.288       .  A
O76         Zr92   2.429       .  S
O76          C99   1.290       .  A
O77         Zr93   2.448       .  S
O77         C100   1.294       .  A
O78         Zr93   2.448       .  S
O78         C101   1.294       .  A
O79         Zr92   2.446       .  S
O79         C102   1.293       .  A
O80         Zr94   2.426   1_455  S
O80         C103   1.290       .  A
O81       Zr2110   2.423       .  S
O81         C104   1.290       .  A
O82         Zr92   2.448       .  S
O82         C103   1.294       .  A
O83         Zr93   2.430       .  S
O83         C104   1.290       .  A
O84         Zr90   2.429   1_455  S
O84          C99   1.290       .  A
O85         Zr91   2.442   1_455  S
O85         C102   1.292       .  A
O86       Zr2107   2.436       .  S
O86         C101   1.292       .  A
O87       Zr2106   2.442       .  S
O87         C100   1.293       .  A
O88         Zr94   2.447       .  S
O88          C97   1.294       .  A
O89         Zr94   2.458   1_455  S
O89          C98   1.298       .  A
Zr90       O2103   2.425       .  S
Zr90         O96   2.337   1_655  S
Zr90       O2080   2.335       .  S
Zr90       O2124   2.339       .  S
Zr91       O2102   2.444       .  S
Zr91        O106   2.340   1_655  S
Zr91       O2089   2.341       .  S
Zr91       O2111   2.341       .  S
Zr92         O96   2.339       .  S
Zr92        O106   2.337       .  S
Zr93         O95   2.341       .  S
Zr93        O108   2.340       .  S
Zr94       O2097   2.435       .  S
Zr94         O96   2.339   1_655  S
Zr94        O106   2.338   1_655  S
Zr94       O2111   2.339       .  S
Zr94       O2124   2.338       .  S
O95       Zr2107   2.343       .  S
O95       Zr2110   2.337       .  S
C97         C469   1.479       .  S
C98         C484   1.502       .  S
C99         C340   1.463       .  S
C100        C352   1.485       .  S
C101        C313   1.479       .  S
C102        C325   1.472       .  S
C103        C301   1.481       .  S
C104        C277   1.463       .  S
H105        O106   0.965       .  S
H107        O108   0.964       .  S
O108      Zr2106   2.341       .  S
O108      Zr2110   2.344       .  S
O109       Zr145   2.448       .  S
O109        C120   1.295       .  A
O110       Zr144   2.432       .  S
O110        C121   1.291       .  A
O111       Zr117   2.453       .  S
O111        C122   1.295       .  A
O112      Zr1125   2.445       .  S
O112        C123   1.294       .  A
O113       Zr147   2.461       .  S
O113        C123   1.296       .  A
O114       Zr146   2.439       .  S
O114        C122   1.293       .  A
O115       Zr117   2.423       .  S
O115        C121   1.290       .  A
O116       Zr117   2.423       .  S
O116        C120   1.288       .  A
Zr117      O1120   2.466       .  S
Zr117       O119   2.334       .  S
Zr117       O125   2.349       .  S
Zr117      O1126   2.340       .  S
Zr117      O1135   2.338       .  S
O118       Zr147   2.339       .  S
O118      Zr1125   2.344       .  S
O118      Zr1152   2.340   1_545  S
O119       Zr145   2.335       .  S
O119       Zr146   2.342       .  S
C120       C1453   1.491       .  S
C121       C1444   1.465       .  S
C122        C229   1.484       .  S
C123        C217   1.500       .  S
H124        O125   0.966       .  S
O125       Zr144   2.344       .  S
O125       Zr146   2.339       .  S
H126        O127   0.966       .  S
O127       Zr147   2.347       .  S
O127      Zr1125   2.341       .  S
O127      Zr1153   2.342       .  S
O128       Zr144   2.446       .  S
O128        C151   1.293       .  A
O129       Zr145   2.432       .  S
O129        C152   1.292       .  A
O130       Zr146   2.445       .  S
O130        C153   1.293       .  A
O131       Zr147   2.428       .  S
O131        C154   1.292       .  A
O132       Zr147   2.420       .  S
O132        C155   1.289       .  A
O133       Zr146   2.419       .  S
O133        C156   1.289       .  A
O134       Zr148   2.451       .  S
O134        C157   1.294       .  A
O135      Zr1156   2.440   1_545  S
O135        C158   1.292       .  A
O136       Zr146   2.440       .  S
O136        C157   1.293       .  A
O137       Zr147   2.460       .  S
O137        C158   1.296       .  A
O138       Zr144   2.422       .  S
O138        C153   1.289       .  A
O139       Zr145   2.438       .  S
O139        C156   1.292       .  A
O140      Zr1153   2.457       .  S
O140        C155   1.296       .  A
O141      Zr1152   2.434   1_545  S
O141        C154   1.291       .  A
O142       Zr148   2.429       .  S
O142        C151   1.291       .  A
O143       Zr148   2.414       .  S
O143        C152   1.287       .  A
Zr144      O1149   2.422       .  S
Zr144       O150   2.330       .  S
Zr144      O1126   2.338       .  S
Zr144      O1170   2.338       .  S
Zr145      O1148   2.446       .  S
Zr145       O160   2.351       .  S
Zr145      O1135   2.337       .  S
Zr145      O1157   2.342       .  S
Zr146       O150   2.332       .  S
Zr146       O160   2.344       .  S
Zr147       O149   2.338       .  S
Zr147       O162   2.343       .  S
Zr148      O1143   2.447       .  S
Zr148       O150   2.333       .  S
Zr148       O160   2.342       .  S
Zr148      O1157   2.342       .  S
Zr148      O1170   2.334       .  S
O149      Zr1153   2.343       .  S
O149      Zr1156   2.340   1_545  S
C151       C1432   1.478       .  S
C152       C1417   1.475       .  S
C153        C304   1.478       .  S
C154        C292   1.484       .  S
C155        C268   1.479       .  S
C156        C280   1.465       .  S
C157        C244   1.484       .  S
C158        C253   1.488       .  S
H159        O160   0.967       .  S
H161        O162   0.965       .  S
O162      Zr1152   2.343   1_545  S
O162      Zr1156   2.338   1_545  S
O163       Zr199   2.422       .  S
O163        C174   1.289       .  A
O164       Zr198   2.414       .  S
O164        C175   1.287       .  A
O165       Zr675   2.454   1_554  S
O165        C176   1.294       .  A
O166       Zr171   2.422       .  S
O166        C177   1.289       .  A
O167       Zr201   2.440       .  S
O167        C177   1.292       .  A
O168       Zr200   2.443       .  S
O168        C176   1.292       .  A
O169       Zr171   2.450       .  S
O169        C175   1.295       .  A
O170       Zr171   2.446       .  S
O170        C174   1.294       .  A
Zr171       O669   2.434       .  S
Zr171       O172   2.336       .  S
Zr171       O181   2.344       .  S
Zr171       O677   2.342       .  S
Zr171       O683   2.335       .  S
O172       Zr198   2.340       .  S
O172       Zr201   2.341       .  S
O173       Zr200   2.330       .  S
O173       Zr675   2.332   1_554  S
O173       Zr703   2.344   1_554  S
C174        C904   1.477       .  S
C175        C892   1.472       .  S
C176        C328   1.477       .  S
C177        C337   1.465       .  S
H178        O179   0.968       .  S
O179       Zr200   2.342       .  S
O179       Zr675   2.336   1_554  S
O179       Zr702   2.352   1_554  S
H180        O181   0.979       .  S
O181       Zr199   2.339       .  S
O181       Zr201   2.335       .  S
O182       Zr198   2.438       .  S
O182        C205   1.292       .  A
O183       Zr199   2.430       .  S
O183        C206   1.290       .  A
O184       Zr200   2.437       .  S
O184        C207   1.292       .  A
O185       Zr201   2.444       .  S
O185        C208   1.293       .  A
O186       Zr201   2.465       .  S
O186        C209   1.297       .  A
O187       Zr200   2.444       .  S
O187        C210   1.294       .  A
O188       Zr706   2.452       .  S
O188        C211   1.295       .  A
O189       Zr202   2.439       .  S
O189        C212   1.293       .  A
O190       Zr200   2.425       .  S
O190        C211   1.290       .  A
O191       Zr201   2.438       .  S
O191        C212   1.293       .  A
O192       Zr702   2.447   1_554  S
O192        C207   1.294       .  A
O193       Zr703   2.433   1_554  S
O193        C210   1.290       .  A
O194       Zr199   2.429       .  S
O194        C209   1.290       .  A
O195       Zr198   2.446       .  S
O195        C208   1.294       .  A
O196       Zr202   2.441       .  S
O196        C205   1.293       .  A
O197       Zr202   2.443       .  S
O197        C206   1.294       .  A
Zr198       O696   2.447       .  S
Zr198       O216   2.336       .  S
Zr198       O683   2.343       .  S
Zr198       O708   2.339       .  S
Zr199       O697   2.430       .  S
Zr199       O203   2.333       .  S
Zr199       O677   2.342       .  S
Zr199       O718   2.336       .  S
Zr200       O204   2.344       .  S
Zr200       O214   2.343       .  S
Zr201       O203   2.336       .  S
Zr201       O216   2.348       .  S
Zr202       O692   2.444       .  S
Zr202       O203   2.341       .  S
Zr202       O216   2.340       .  S
Zr202       O708   2.343       .  S
Zr202       O718   2.341       .  S
O204       Zr702   2.341   1_554  S
O204       Zr706   2.338       .  S
C205        C868   1.479       .  S
C206        C880   1.477       .  S
C207        C232   1.482       .  S
C208        C241   1.482       .  S
C209        C256   1.488       .  S
C210        C220   1.489       .  S
C211        C316   1.478       .  S
C212        C349   1.480       .  S
H213        O214   0.962       .  S
O214       Zr703   2.339   1_554  S
O214       Zr706   2.337       .  S
H215        O216   0.962       .  S
C217        C218   1.406       .  A
C217        C222   1.416       .  A
C218        C219   1.400       .  A
C218        H227   1.076       .  S
C219        C220   1.417       .  A
C219        S223   1.804       .  S
C220        C221   1.404       .  A
C221        C222   1.400       .  A
C221        H228   1.084       .  S
C222        S224   1.791       .  S
S223        H226   1.408       .  S
S224        H225   1.409       .  S
C229        C230   1.403       .  A
C229        C234   1.416       .  A
C230        C231   1.399       .  A
C230        H239   1.084       .  S
C231        C232   1.416       .  A
C231        S235   1.805       .  S
C232        C233   1.406       .  A
C233        C234   1.403       .  A
C233        H240   1.084       .  S
C234        S236   1.804       .  S
S235        H238   1.407       .  S
S236        H237   1.404       .  S
C241        C242   1.404       .  A
C241        C246   1.415       .  A
C242        C243   1.403       .  A
C242        H251   1.084       .  S
C243        C244   1.417       .  A
C243        S247   1.804       .  S
C244        C245   1.405       .  A
C245        C246   1.401       .  A
C245        H252   1.084       .  S
C246        S248   1.806       .  S
S247        H250   1.403       .  S
S248        H249   1.405       .  S
C253        C254   1.405       .  A
C253        C258   1.414       .  A
C254        C255   1.404       .  A
C254        H263   1.084       .  S
C255        C256   1.419       .  A
C255        S259   1.805       .  S
C256        C257   1.405       .  A
C257        C258   1.403       .  A
C257        H264   1.084       .  S
C258        S260   1.803       .  S
S259        H262   1.407       .  S
S260        H261   1.408       .  S
C265        C266   1.403       .  A
C265        C270   1.414       .  A
C266        C267   1.398       .  A
C266        H275   1.084       .  S
C267        C268   1.417       .  A
C267        S271   1.806       .  S
C268        C269   1.404       .  A
C269        C270   1.400       .  A
C269        H276   1.084       .  S
C270        S272   1.805       .  S
S271        H274   1.407       .  S
S272        H273   1.407       .  S
C277        C278   1.401       .  A
C277        C282   1.414       .  A
C278        C279   1.393       .  A
C278        H287   1.085       .  S
C279        C280   1.409       .  A
C279        S283   1.798       .  S
C280        C281   1.402       .  A
C281        C282   1.396       .  A
C281        H288   1.084       .  S
C282        S284   1.807       .  S
S283        H286   1.405       .  S
S284        H285   1.403       .  S
C289        C290   1.408       .  A
C289        C294   1.414       .  A
C290        C291   1.398       .  A
C290        H299   1.081       .  S
C291        C292   1.414       .  A
C291        S295   1.804       .  S
C292        C293   1.403       .  A
C293        C294   1.393       .  A
C293        H300   1.077       .  S
C294        S296   1.804       .  S
S295        H298   1.409       .  S
S296        H297   1.405       .  S
C301        C302   1.405       .  A
C301        C306   1.416       .  A
C302        C303   1.401       .  A
C302        H311   1.084       .  S
C303        C304   1.414       .  A
C303        S307   1.803       .  S
C304        C305   1.402       .  A
C305        C306   1.395       .  A
C305        H312   1.084       .  S
C306        S308   1.798       .  S
S307        H310   1.406       .  S
S308        H309   1.407       .  S
C313        C314   1.404       .  A
C313        C318   1.415       .  A
C314        C315   1.401       .  A
C314        H323   1.084       .  S
C315        C316   1.416       .  A
C315        S319   1.805       .  S
C316        C317   1.402       .  A
C317        C318   1.399       .  A
C317        H324   1.084       .  S
C318        S320   1.804       .  S
S319        H322   1.407       .  S
S320        H321   1.406       .  S
C325        C326   1.402       .  A
C325        C330   1.411       .  A
C326        C327   1.402       .  A
C326        H335   1.083       .  S
C327        C328   1.415       .  A
C327        S331   1.807       .  S
C328        C329   1.404       .  A
C329        C330   1.401       .  A
C329        H336   1.080       .  S
C330        S332   1.805       .  S
S331        H334   1.401       .  S
S332        H333   1.405       .  S
C337        C338   1.400       .  A
C337        C342   1.411       .  A
C338        C339   1.395       .  A
C338        H347   1.084       .  S
C339        C340   1.412       .  A
C339        S343   1.806       .  S
C340        C341   1.402       .  A
C341        C342   1.400       .  A
C341        H348   1.083       .  S
C342        S344   1.808       .  S
S343        H346   1.402       .  S
S344        H345   1.406       .  S
C349        C350   1.403       .  A
C349        C354   1.415       .  A
C350        C351   1.400       .  A
C350        H359   1.084       .  S
C351        C352   1.417       .  A
C351        S355   1.803       .  S
C352        C353   1.405       .  A
C353        C354   1.401       .  A
C353        H360   1.084       .  S
C354        S356   1.804       .  S
S355        H358   1.406       .  S
S356        H357   1.407       .  S
C361        C366   1.415       .  A
C361        C866   1.405   1_554  A
C362        C363   1.402       .  A
C362        C865   1.406       .  A
C362        H371   1.084       .  S
C363        C868   1.416       .  A
C363        S367   1.806       .  S
C364        C709   1.482       .  S
C364        C365   1.405   1_556  A
C364        C867   1.415       .  A
C365        C366   1.402       .  A
C365        H372   1.084       .  S
C366        S368   1.804       .  S
S367        H370   1.405       .  S
S368        H369   1.407       .  S
C373        C374   1.405   1_556  A
C373        C882   1.416       .  A
C374        C375   1.398       .  A
C374        H383   1.084       .  S
C375        C376   1.416       .  A
C375        S379   1.803       .  S
C376        C710   1.488       .  S
C376        C881   1.407   1_554  A
C377        C378   1.401       .  A
C377        C880   1.406       .  A
C377        H384   1.084       .  S
C378        C877   1.415       .  A
C378        S380   1.804       .  S
S379        H382   1.408       .  S
S380        H381   1.406       .  S
C385        C386   1.403   1_556  A
C385        C894   1.412       .  A
C386        C387   1.393       .  A
C386        H395   1.085       .  S
C387        C388   1.415   1_554  A
C387        S391   1.802       .  S
C388        C679   1.477       .  S
C388        C893   1.406       .  A
C389        C390   1.400       .  A
C389        C892   1.405       .  A
C389        H396   1.084       .  S
C390        C889   1.414       .  A
C390        S392   1.804       .  S
S391        H394   1.405       .  S
S392        H393   1.406       .  S
C397        C402   1.411       .  A
C397        C902   1.400   1_554  A
C398        C399   1.398       .  A
C398        C901   1.404       .  A
C398        H407   1.084       .  S
C399        C904   1.413       .  A
C399        S403   1.804       .  S
C400        C678   1.461       .  S
C400        C401   1.402       .  A
C400        C903   1.413   1_554  A
C401        C402   1.394       .  A
C401        H408   1.084       .  S
C402        S404   1.804       .  S
S403        H406   1.408       .  S
S404        H405   1.407       .  S
C409       C1160   1.463       .  S
C409        C410   1.400   1_565  A
C409       C1422   1.412       .  A
C410        C411   1.392       .  A
C410        H419   1.085       .  S
C411        C412   1.414   1_545  A
C411        S415   1.804       .  S
C412       C1421   1.404       .  A
C413        C414   1.392       .  A
C413       C1420   1.402       .  A
C413        H420   1.084       .  S
C414       C1417   1.417       .  A
C414        S416   1.805       .  S
S415        H418   1.406       .  S
S416        H417   1.407       .  S
C421        C426   1.415   1_565  A
C421       C1430   1.408       .  A
C422        C423   1.402       .  A
C422       C1429   1.405       .  A
C422        H431   1.084       .  S
C423       C1432   1.414       .  A
C423        S427   1.806       .  S
C424       C1159   1.482       .  S
C424        C425   1.404   1_565  A
C424       C1431   1.415       .  A
C425        C426   1.397       .  A
C425        H432   1.084       .  S
C426        S428   1.804       .  S
S427        H430   1.404       .  S
S428        H429   1.407       .  S
C433        C438   1.415       .  A
C433       C1442   1.403   1_545  A
C434        C435   1.398       .  A
C434       C1441   1.404       .  A
C434        H443   1.084       .  S
C435       C1444   1.412       .  A
C435        S439   1.807       .  S
C436       C1129   1.468   1_545  S
C436        C437   1.403       .  A
C436       C1443   1.411   1_545  A
C437        C438   1.396       .  A
C437        H444   1.084       .  S
C438        S440   1.805       .  S
S439        H442   1.406       .  S
S440        H441   1.405       .  S
C445       C1128   1.490       .  S
C445        C450   1.416       .  A
C445       C1454   1.405   1_545  A
C446        C447   1.397       .  A
C446       C1453   1.403       .  A
C446        H455   1.082       .  S
C447       C1456   1.416       .  A
C447        S451   1.799       .  S
C448        C449   1.402   1_565  A
C448       C1455   1.414       .  A
C449        C450   1.394       .  A
C449        H456   1.084       .  S
C450        S452   1.794       .  S
S451        H454   1.408       .  S
S452        H453   1.408       .  S
C457        C462   1.413   1_655  A
C457       C2474   1.405       .  A
C458        C459   1.402       .  A
C458       C2473   1.404       .  A
C458        H467   1.084       .  S
C459       C2476   1.417       .  A
C459        S463   1.805       .  S
C460        C461   1.400   1_655  A
C460       C2475   1.416       .  A
C461        C462   1.396       .  A
C461        H468   1.084       .  S
C462        S464   1.797       .  S
S463        H466   1.406       .  S
S464        H465   1.403       .  S
C469        C470   1.404   1_655  A
C469       C2490   1.413       .  A
C470        C471   1.400       .  A
C470        H479   1.084       .  S
C471        C472   1.416       .  A
C471        S475   1.805       .  S
C472       C2489   1.406   1_455  A
C473        C474   1.401       .  A
C473       C2488   1.403       .  A
C473        H480   1.084       .  S
C474       C2485   1.417       .  A
C474        S476   1.804       .  S
S475        H478   1.407       .  S
S476        H477   1.403       .  S
C481        C482   1.406       .  A
C481       C2502   1.421       .  A
C482        C483   1.400       .  A
C482        H491   1.083       .  S
C483        C484   1.423       .  A
C483        S487   1.804       .  S
C484       C2501   1.407       .  A
C485        C486   1.404       .  A
C485       C2500   1.407       .  A
C485        H492   1.080       .  S
C486       C2497   1.422       .  A
C486        S488   1.813       .  S
S487        H490   1.404       .  S
S488        H489   1.406       .  S
C493        C498   1.416       .  A
C493       C2510   1.403   1_655  A
C494        C495   1.403       .  A
C494       C2509   1.403       .  A
C494        H503   1.083       .  S
C495       C2512   1.416       .  A
C495        S499   1.808       .  S
C496        C497   1.403   1_455  A
C496       C2511   1.413       .  A
C497        C498   1.403       .  A
C497        H504   1.083       .  S
C498        S500   1.809       .  S
S499        H502   1.407       .  S
S500        H501   1.407       .  S
O505       Zr541   2.441   1_545  S
O505        C516   1.292       .  A
O506       Zr540   2.450       .  S
O506        C517   1.294       .  A
O507       Zr513   2.439   1_455  S
O507        C518   1.293       .  A
O508      Zr2529   2.438       .  S
O508        C519   1.293       .  A
O509       Zr543   2.442   1_545  S
O509        C519   1.293       .  A
O510       Zr542   2.428       .  S
O510        C518   1.290       .  A
O511        C517   1.292   1_655  A
O512       Zr513   2.461       .  S
O512        C516   1.297       .  A
Zr513      O2524   2.429       .  S
Zr513      O2026   2.342       .  S
Zr513       O515   2.334   1_655  S
Zr513      O2539   2.339       .  S
O514      Zr2025   2.341       .  S
O514      Zr2556   2.335       .  S
O515       Zr541   2.334   1_445  S
O515       Zr542   2.341       .  S
C516        C997   1.492       .  S
C517        C964   1.480       .  S
C518        C901   1.477       .  S
C519        C877   1.479       .  S
H520        O521   0.967       .  S
O521       Zr540   2.338       .  S
H522        O523   0.965       .  S
O523      Zr2529   2.342       .  S
O523      Zr2557   2.340       .  S
O523       Zr543   2.342   1_545  S
O524      Zr1548   2.443       .  S
O524        C547   1.294       .  A
O525      Zr1549   2.434   1_455  S
O525        C548   1.289       .  A
O526        C549   1.290       .  A
O527        C550   1.293   1_565  A
O528       Zr543   2.442       .  S
O528        C551   1.293       .  A
O529       Zr542   2.436       .  S
O529        C552   1.292       .  A
O530       Zr544   2.431       .  S
O530        C553   1.291       .  A
O531      Zr2560   2.448       .  S
O531        C554   1.294       .  A
O532      Zr1550   2.431       .  S
O532        C553   1.290       .  A
O533      Zr1551   2.440       .  S
O533        C554   1.292       .  A
O534       Zr540   2.429       .  S
O534        C549   1.291       .  A
O535       Zr541   2.435   1_445  S
O535        C552   1.291       .  A
O536      Zr2557   2.429   1_565  S
O536        C551   1.290       .  A
O537      Zr2556   2.428       .  S
O537        C550   1.290       .  A
O538        C547   1.295       .  A
O539       Zr544   2.441       .  S
O539        C548   1.294       .  A
Zr540      O1532   2.451   1_545  S
Zr540      O2553   2.437   1_455  S
Zr540      O2530   2.335   1_455  S
Zr540      O1554   2.335   1_545  S
Zr540      O3582   2.348   1_445  S
Zr541      O1533   2.427       .  S
Zr541      O2552   2.421       .  S
Zr541      O2539   2.341   1_565  S
Zr541      O3569   2.338       .  S
Zr541      O1564   2.342   1_655  S
Zr542      O1540   2.432   1_545  S
Zr542      O1050   2.330   1_545  S
Zr542      O1564   2.344   1_545  S
Zr543      O1541   2.444       .  S
Zr543      O1553   2.336       .  S
Zr543      O1062   2.338       .  S
Zr544      O2547   2.430   1_455  S
Zr544      O2561   2.337   1_455  S
Zr544      O2070   2.341   1_455  S
Zr544       O556   2.342       .  S
O545      Zr3565   2.343       .  S
O545      Zr1551   2.337       .  S
O545      Zr2560   2.335       .  S
O546      Zr1548   2.336       .  S
O546      Zr1046   2.338   1_556  S
C547        C976   1.489       .  S
C548        C985   1.497       .  S
C549        C925   1.468       .  S
C550        C916   1.480       .  S
C551        C952   1.483       .  S
C552        C937   1.479       .  S
C553        C889   1.471       .  S
C554        C865   1.482       .  S
H555        O556   0.965       .  S
O556      Zr1549   2.340   1_455  S
O556      Zr1550   2.338       .  S
H557        O558   0.965       .  S
O558      Zr3564   2.344       .  S
O558      Zr1047   2.341       .  S
O558      Zr2056   2.340       .  S
O559       Zr595   2.435       .  S
O559        C570   1.292       .  A
O560       Zr594   2.441       .  S
O560        C571   1.293   1_655  A
O561       Zr567   2.421   1_455  S
O561        C572   1.289       .  A
O562      Zr2583   2.436       .  S
O562        C573   1.292       .  A
O563       Zr597   2.433       .  S
O563        C573   1.292       .  A
O564       Zr596   2.438       .  S
O564        C572   1.291       .  A
O565       Zr567   2.447   1_455  S
O565        C571   1.294       .  A
O566       Zr567   2.451       .  S
O566        C570   1.295       .  A
Zr567      O2578   2.433       .  S
Zr567      O2584   2.337       .  S
Zr567       O569   2.340   1_655  S
Zr567      O2593   2.347       .  S
Zr567       O575   2.342   1_655  S
O568      Zr2583   2.341       .  S
O568      Zr2610   2.340       .  S
O568       Zr597   2.335       .  S
O569       Zr595   2.340   1_455  S
O569       Zr596   2.336       .  S
C570       C1000   1.486       .  S
C571        C961   1.478       .  S
C572        C793   1.485       .  S
C573        C769   1.476       .  S
H574        O575   0.966       .  S
O575       Zr594   2.345   1_455  S
O575       Zr596   2.335       .  S
H576        O577   0.965       .  S
O577      Zr2583   2.344       .  S
O577      Zr2611   2.342       .  S
O577       Zr597   2.340       .  S
O578       Zr594   2.451       .  S
O578        C601   1.295       .  A
O579       Zr595   2.428       .  S
O579        C602   1.288   1_655  A
O580       Zr596   2.434       .  S
O580        C603   1.291       .  A
O581       Zr597   2.438       .  S
O581        C604   1.292       .  A
O582       Zr597   2.442       .  S
O582        C605   1.293       .  A
O583       Zr596   2.445       .  S
O583        C606   1.293       .  A
O584       Zr598   2.435       .  S
O584        C607   1.292       .  A
O585      Zr2614   2.430       .  S
O585        C608   1.291       .  A
O586       Zr596   2.430       .  S
O586        C607   1.291       .  A
O587       Zr597   2.436       .  S
O587        C608   1.292       .  A
O588       Zr594   2.419   1_455  S
O588        C603   1.289       .  A
O589       Zr595   2.427   1_455  S
O589        C606   1.289       .  A
O590      Zr2611   2.442       .  S
O590        C605   1.293       .  A
O591      Zr2610   2.442       .  S
O591        C604   1.293       .  A
O592       Zr598   2.446       .  S
O592        C601   1.293   1_455  A
O593       Zr598   2.443       .  S
O593        C602   1.295       .  A
Zr594      O2607   2.426       .  S
Zr594      O2584   2.337       .  S
Zr594       O600   2.336   1_655  S
Zr594      O2628   2.331       .  S
Zr595      O2606   2.436       .  S
Zr595      O2593   2.346       .  S
Zr595      O2615   2.330       .  S
Zr595       O610   2.340   1_655  S
Zr596       O600   2.341       .  S
Zr596       O610   2.336       .  S
Zr597       O599   2.338       .  S
Zr597       O612   2.342       .  S
Zr598      O2601   2.432   1_455  S
Zr598      O2615   2.339   1_455  S
Zr598       O600   2.335       .  S
Zr598      O2628   2.341   1_455  S
Zr598       O610   2.336       .  S
O599      Zr2611   2.335       .  S
O599      Zr2614   2.339       .  S
C601        C973   1.491       .  S
C602        C988   1.496       .  S
C603        C844   1.472       .  S
C604        C856   1.480       .  S
C605        C817   1.477       .  S
C606        C829   1.464       .  S
C607        C805   1.471       .  S
C608        C781   1.472       .  S
H609        O610   0.964       .  S
H611        O612   0.962       .  S
O612      Zr2610   2.340       .  S
O612      Zr2614   2.346       .  S
O613       Zr649   2.440       .  S
O613        C624   1.293       .  A
O614       Zr648   2.443       .  S
O614        C625   1.294       .  A
O615       Zr621   2.433       .  S
O615        C626   1.291       .  A
O616      Zr1629   2.450       .  S
O616        C627   1.295       .  A
O617       Zr651   2.436       .  S
O617        C627   1.291       .  A
O618       Zr650   2.439       .  S
O618        C626   1.292       .  A
O619       Zr621   2.428       .  S
O619        C625   1.290       .  A
O620       Zr621   2.432       .  S
O620        C624   1.290       .  A
Zr621      O1624   2.449       .  S
Zr621      O1630   2.337       .  S
Zr621       O623   2.340       .  S
Zr621      O1639   2.334       .  S
Zr621       O629   2.339       .  S
O622      Zr1629   2.337       .  S
O622      Zr1656   2.340   1_545  S
O622       Zr651   2.340       .  S
O623       Zr649   2.338       .  S
O623       Zr650   2.336       .  S
C624       C1957   1.490       .  S
C625       C1948   1.474       .  S
C626        C733   1.475       .  S
C627        C721   1.495       .  S
H628        O629   0.966       .  S
O629       Zr648   2.336       .  S
O629       Zr650   2.335       .  S
H630        O631   0.966       .  S
O631      Zr1629   2.342       .  S
O631      Zr1657   2.346       .  S
O631       Zr651   2.338       .  S
O632       Zr648   2.445       .  S
O632        C655   1.293       .  A
O633       Zr649   2.443       .  S
O633        C656   1.293       .  A
O634       Zr650   2.415       .  S
O634        C657   1.287       .  A
O635       Zr651   2.435       .  S
O635        C658   1.293       .  A
O636       Zr651   2.433       .  S
O636        C659   1.291       .  A
O637       Zr650   2.422       .  S
O637        C660   1.289       .  A
O638       Zr652   2.435       .  S
O638        C661   1.291       .  A
O639      Zr1660   2.456   1_545  S
O639        C662   1.295       .  A
O640       Zr650   2.439       .  S
O640        C661   1.292       .  A
O641       Zr651   2.432       .  S
O641        C662   1.291       .  A
O642       Zr648   2.436       .  S
O642        C657   1.292       .  A
O643       Zr649   2.448       .  S
O643        C660   1.294       .  A
O644      Zr1657   2.441       .  S
O644        C659   1.293       .  A
O645      Zr1656   2.422   1_545  S
O645        C658   1.288       .  A
O646       Zr652   2.433       .  S
O646        C655   1.291       .  A
O647       Zr652   2.436       .  S
O647        C656   1.292       .  A
Zr648      O1653   2.431       .  S
Zr648      O1630   2.342       .  S
Zr648       O654   2.337       .  S
Zr648      O1674   2.341       .  S
Zr649      O1652   2.437       .  S
Zr649      O1639   2.343       .  S
Zr649      O1661   2.346       .  S
Zr649       O664   2.342       .  S
Zr650       O654   2.338       .  S
Zr650       O664   2.337       .  S
Zr651       O653   2.338       .  S
Zr651       O666   2.338       .  S
Zr652      O1647   2.447       .  S
Zr652      O1661   2.342       .  S
Zr652       O654   2.340       .  S
Zr652      O1674   2.336       .  S
Zr652       O664   2.344       .  S
O653      Zr1657   2.338       .  S
O653      Zr1660   2.336   1_545  S
C655       C1936   1.478       .  S
C656       C1921   1.474       .  S
C657        C808   1.465       .  S
C658        C796   1.484       .  S
C659        C772   1.478       .  S
C660        C784   1.474       .  S
C661        C748   1.478       .  S
C662        C757   1.481       .  S
H663        O664   0.967       .  S
H665        O666   0.965       .  S
O666      Zr1656   2.347   1_545  S
O666      Zr1660   2.339   1_545  S
O667       Zr703   2.419   1_554  S
O667        C678   1.289       .  A
O668       Zr702   2.434       .  S
O668        C679   1.291       .  A
O669        C680   1.291       .  A
O670       Zr675   2.423       .  S
O670        C681   1.289       .  A
O671       Zr705   2.446       .  S
O671        C681   1.294       .  A
O672       Zr704   2.448       .  S
O672        C680   1.293       .  A
O673       Zr675   2.435       .  S
O673        C679   1.291       .  A
O674       Zr675   2.428   1_554  S
O674        C678   1.290       .  A
Zr675       O676   2.342       .  S
Zr675       O685   2.347       .  S
O676       Zr702   2.340       .  S
O676       Zr705   2.341       .  S
O677       Zr704   2.339       .  S
C680        C832   1.468       .  S
C681        C841   1.474       .  S
H682        O683   0.967       .  S
O683       Zr704   2.340       .  S
H684        O685   0.982       .  S
O685       Zr703   2.338       .  S
O685       Zr705   2.339       .  S
O686       Zr702   2.442       .  S
O686        C709   1.293       .  A
O687       Zr703   2.439       .  S
O687        C710   1.293   1_556  A
O688       Zr704   2.436       .  S
O688        C711   1.292       .  A
O689       Zr705   2.438       .  S
O689        C712   1.292       .  A
O690       Zr705   2.439       .  S
O690        C713   1.292       .  A
O691       Zr704   2.437       .  S
O691        C714   1.293       .  A
O692        C715   1.293       .  A
O693       Zr706   2.439   1_556  S
O693        C716   1.292       .  A
O694       Zr704   2.438       .  S
O694        C715   1.292       .  A
O695       Zr705   2.445       .  S
O695        C716   1.294       .  A
O696        C711   1.294       .  A
O697        C714   1.289       .  A
O698       Zr703   2.453       .  S
O698        C713   1.295       .  A
O699       Zr702   2.450       .  S
O699        C712   1.294       .  A
O700       Zr706   2.439       .  S
O700        C709   1.292   1_554  A
O701       Zr706   2.442       .  S
O701        C710   1.293       .  A
Zr702       O720   2.339       .  S
Zr703       O707   2.335       .  S
Zr704       O708   2.349       .  S
Zr704       O718   2.344       .  S
Zr705       O707   2.342       .  S
Zr705       O720   2.344       .  S
Zr706       O707   2.346   1_554  S
Zr706       O720   2.345   1_554  S
C711        C736   1.479       .  S
C712        C745   1.481       .  S
C713        C760   1.483       .  S
C714        C724   1.488       .  S
C715        C820   1.474       .  S
C716        C853   1.479       .  S
H717        O718   0.961       .  S
H719        O720   0.960       .  S
C721        C722   1.404       .  A
C721        C726   1.418       .  A
C722        C723   1.398       .  A
C722        H731   1.078       .  S
C723        C724   1.418       .  A
C723        S727   1.804       .  S
C724        C725   1.404       .  A
C725        C726   1.398       .  A
C725        H732   1.084       .  S
C726        S728   1.796       .  S
S727        H730   1.408       .  S
S728        H729   1.408       .  S
C733        C734   1.403       .  A
C733        C738   1.412       .  A
C734        C735   1.400       .  A
C734        H743   1.084       .  S
C735        C736   1.416       .  A
C735        S739   1.802       .  S
C736        C737   1.403       .  A
C737        C738   1.397       .  A
C737        H744   1.084       .  S
C738        S740   1.803       .  S
S739        H742   1.405       .  S
S740        H741   1.407       .  S
C745        C746   1.404       .  A
C745        C750   1.416       .  A
C746        C747   1.400       .  A
C746        H755   1.084       .  S
C747        C748   1.415       .  A
C747        S751   1.805       .  S
C748        C749   1.404       .  A
C749        C750   1.400       .  A
C749        H756   1.084       .  S
C750        S752   1.805       .  S
S751        H754   1.405       .  S
S752        H753   1.406       .  S
C757        C758   1.403       .  A
C757        C762   1.417       .  A
C758        C759   1.401       .  A
C758        H767   1.084       .  S
C759        C760   1.414       .  A
C759        S763   1.803       .  S
C760        C761   1.405       .  A
C761        C762   1.402       .  A
C761        H768   1.084       .  S
C762        S764   1.805       .  S
S763        H766   1.405       .  S
S764        H765   1.407       .  S
C769        C770   1.404       .  A
C769        C774   1.414       .  A
C770        C771   1.397       .  A
C770        H779   1.084       .  S
C771        C772   1.415       .  A
C771        S775   1.805       .  S
C772        C773   1.406       .  A
C773        C774   1.400       .  A
C773        H780   1.084       .  S
C774        S776   1.806       .  S
S775        H778   1.406       .  S
S776        H777   1.406       .  S
C781        C782   1.402       .  A
C781        C786   1.414       .  A
C782        C783   1.397       .  A
C782        H791   1.084       .  S
C783        C784   1.411       .  A
C783        S787   1.798       .  S
C784        C785   1.403       .  A
C785        C786   1.398       .  A
C785        H792   1.084       .  S
C786        S788   1.805       .  S
S787        H790   1.406       .  S
S788        H789   1.406       .  S
C793        C794   1.408       .  A
C793        C798   1.414       .  A
C794        C795   1.398       .  A
C794        H803   1.083       .  S
C795        C796   1.417       .  A
C795        S799   1.805       .  S
C796        C797   1.404       .  A
C797        C798   1.392       .  A
C797        H804   1.079       .  S
C798        S800   1.803       .  S
S799        H802   1.408       .  S
S800        H801   1.408       .  S
C805        C806   1.404       .  A
C805        C810   1.415       .  A
C806        C807   1.398       .  A
C806        H815   1.084       .  S
C807        C808   1.413       .  A
C807        S811   1.805       .  S
C808        C809   1.399       .  A
C809        C810   1.393       .  A
C809        H816   1.085       .  S
C810        S812   1.803       .  S
S811        H814   1.405       .  S
S812        H813   1.401       .  S
C817        C818   1.404       .  A
C817        C822   1.414       .  A
C818        C819   1.401       .  A
C818        H827   1.084       .  S
C819        C820   1.415       .  A
C819        S823   1.807       .  S
C820        C821   1.402       .  A
C821        C822   1.400       .  A
C821        H828   1.084       .  S
C822        S824   1.805       .  S
S823        H826   1.403       .  S
S824        H825   1.406       .  S
C829        C830   1.400       .  A
C829        C834   1.408       .  A
C830        C831   1.400       .  A
C830        H839   1.084       .  S
C831        C832   1.413       .  A
C831        S835   1.808       .  S
C832        C833   1.402       .  A
C833        C834   1.396       .  A
C833        H840   1.078       .  S
C834        S836   1.801       .  S
S835        H838   1.402       .  S
S836        H837   1.405       .  S
C841        C842   1.403       .  A
C841        C846   1.413       .  A
C842        C843   1.399       .  A
C842        H851   1.083       .  S
C843        C844   1.412       .  A
C843        S847   1.810       .  S
C844        C845   1.404       .  A
C845        C846   1.400       .  A
C845        H852   1.083       .  S
C846        S848   1.810       .  S
S847        H850   1.406       .  S
S848        H849   1.406       .  S
C853        C854   1.404       .  A
C853        C858   1.416       .  A
C854        C855   1.400       .  A
C854        H863   1.084       .  S
C855        C856   1.415       .  A
C855        S859   1.803       .  S
C856        C857   1.403       .  A
C857        C858   1.400       .  A
C857        H864   1.084       .  S
C858        S860   1.805       .  S
S859        H862   1.407       .  S
S860        H861   1.406       .  S
C865        C870   1.414       .  A
C866        C867   1.399       .  A
C866        H875   1.084       .  S
C867        S871   1.805       .  S
C868        C869   1.403       .  A
C869        C870   1.400       .  A
C869        H876   1.084       .  S
C870        S872   1.803       .  S
S871        H874   1.406       .  S
S872        H873   1.407       .  S
C877        C878   1.404       .  A
C878        C879   1.397       .  A
C878        H887   1.084       .  S
C879        C880   1.412       .  A
C879        S883   1.804       .  S
C881        C882   1.401       .  A
C881        H888   1.084       .  S
C882        S884   1.803       .  S
S883        H886   1.405       .  S
S884        H885   1.408       .  S
C889        C890   1.401       .  A
C890        C891   1.392       .  A
C890        H899   1.084       .  S
C891        C892   1.410       .  A
C891        S895   1.797       .  S
C893        C894   1.400       .  A
C893        H900   1.084       .  S
C894        S896   1.805       .  S
S895        H898   1.407       .  S
S896        H897   1.408       .  S
C901        C906   1.416       .  A
C902        C903   1.393       .  A
C902        H911   1.084       .  S
C903        S907   1.806       .  S
C904        C905   1.404       .  A
C905        C906   1.397       .  A
C905        H912   1.084       .  S
C906        S908   1.805       .  S
S907        H910   1.404       .  S
S908        H909   1.407       .  S
C913       C1664   1.484       .  S
C913        C914   1.404   1_565  A
C913       C1926   1.419       .  A
C914        C915   1.399       .  A
C914        H923   1.084       .  S
C915        C916   1.416       .  A
C915        S919   1.805       .  S
C916       C1925   1.403   1_545  A
C917       C1924   1.403       .  A
C917        C918   1.399       .  A
C917        H924   1.084       .  S
C918       C1921   1.414       .  A
C918        S920   1.806       .  S
S919        H922   1.408       .  S
S920        H921   1.406       .  S
C925       C1934   1.403   1_545  A
C925        C930   1.413       .  A
C926       C1933   1.403       .  A
C926        C927   1.396       .  A
C926        H935   1.084       .  S
C927       C1936   1.413       .  A
C927        S931   1.804       .  S
C928       C1663   1.468       .  S
C928       C1935   1.411       .  A
C928        C929   1.405   1_565  A
C929        C930   1.397       .  A
C929        H936   1.084       .  S
C930        S932   1.806       .  S
S931        H934   1.406       .  S
S932        H933   1.406       .  S
C937       C1946   1.403   1_545  A
C937        C942   1.415       .  A
C938       C1945   1.404       .  A
C938        C939   1.399       .  A
C938        H947   1.084       .  S
C939       C1948   1.415       .  A
C939        S943   1.806       .  S
C940       C1633   1.481       .  S
C940       C1947   1.417       .  A
C940        C941   1.404   1_565  A
C941        C942   1.401       .  A
C941        H948   1.084       .  S
C942        S944   1.805       .  S
S943        H946   1.407       .  S
S944        H945   1.408       .  S
C949       C1632   1.488       .  S
C949       C1958   1.403   1_545  A
C949        C954   1.417       .  A
C950       C1957   1.403       .  A
C950        C951   1.396       .  A
C950        H959   1.080       .  S
C951       C1960   1.415       .  A
C951        S955   1.802       .  S
C952       C1959   1.414       .  A
C952        C953   1.402   1_565  A
C953        C954   1.397       .  A
C953        H960   1.084       .  S
C954        S956   1.796       .  S
S955        H958   1.408       .  S
S956        H957   1.407       .  S
C961       C2978   1.403   1_455  A
C961        C966   1.413       .  A
C962       C2977   1.405       .  A
C962        C963   1.400       .  A
C962        H971   1.084       .  S
C963       C2980   1.416       .  A
C963        S967   1.804       .  S
C964       C2979   1.416   1_455  A
C964        C965   1.404       .  A
C965        C966   1.401       .  A
C965        H972   1.084       .  S
C966        S968   1.803       .  S
S967        H970   1.406       .  S
S968        H969   1.407       .  S
C973        C974   1.407   1_655  A
C973       C2994   1.418       .  A
C974        C975   1.402       .  A
C974        H983   1.084       .  S
C975        C976   1.415       .  A
C975        S979   1.803       .  S
C976       C2993   1.407   1_455  A
C977       C2992   1.405       .  A
C977        C978   1.403       .  A
C977        H984   1.084       .  S
C978       C2989   1.416       .  A
C978        S980   1.805       .  S
S979        H982   1.408       .  S
S980        H981   1.407       .  S
C985        C986   1.408       .  A
C985       C3006   1.421       .  A
C986        C987   1.399       .  A
C986        H995   1.083   1_455  S
C987        C988   1.421       .  A
C987        S991   1.804       .  S
C988       C3005   1.406       .  A
C989       C3004   1.407       .  A
C989        C990   1.400       .  A
C989        H996   1.082       .  S
C990       C3001   1.422       .  A
C990        S992   1.803       .  S
S991        H994   1.408       .  S
S992        H993   1.408       .  S
C997       C3014   1.405   1_655  A
C997       C1002   1.419       .  A
C998       C3013   1.402       .  A
C998        C999   1.402       .  A
C998       H1007   1.083       .  S
C999       C3016   1.416       .  A
C999       S1003   1.810       .  S
C1000      C3015   1.414   1_655  A
C1000      C1001   1.403       .  A
C1001      C1002   1.407       .  A
C1001      H1008   1.083       .  S
C1002      S1004   1.808       .  S
S1003      H1006   1.407       .  S
S1004      H1005   1.408       .  S
O1009     Zr1045   2.433   1_655  S
O1009      C1020   1.291       .  A
O1010     Zr1044   2.449       .  S
O1010      C1021   1.295       .  A
O1011     Zr1017   2.425   1_455  S
O1011      C1022   1.290       .  A
O1012     Zr3033   2.439   1_554  S
O1012      C1023   1.293   1_554  A
O1013     Zr1047   2.433       .  S
O1013      C1023   1.291       .  A
O1014     Zr1046   2.442       .  S
O1014      C1022   1.293       .  A
O1015     Zr1521   2.435       .  S
O1015      C1021   1.291       .  A
O1016     Zr1017   2.441       .  S
O1016      C1020   1.293       .  A
Zr1017     O3028   2.429       .  S
Zr1017     O1519   2.442   1_554  S
Zr1017     O3538   2.335   1_554  S
Zr1017     O1019   2.342   1_655  S
Zr1017     O3043   2.338       .  S
Zr1017     O1529   2.343   1_654  S
O1018     Zr3537   2.336       .  S
O1018     Zr3060   2.332       .  S
O1018     Zr1551   2.338       .  S
O1019     Zr1045   2.331       .  S
O1019     Zr1046   2.338       .  S
C1020      C1501   1.479       .  S
C1021      C1468   1.483       .  S
C1022      C1405   1.480       .  S
C1023      C1381   1.477       .  S
H1024      O1025   0.967       .  S
O1025     Zr1521   2.347   1_455  S
O1025     Zr1044   2.346   1_455  S
O1025     Zr1550   2.346       .  S
H1026      O1027   0.965       .  S
O1027     Zr3033   2.340   1_554  S
O1027     Zr3061   2.341       .  S
O1027     Zr1047   2.345   1_554  S
O1028      C1051   1.293       .  A
O1029      C1052   1.288       .  A
O1030     Zr1550   2.430       .  S
O1030      C1053   1.290       .  A
O1031     Zr1551   2.427       .  S
O1031      C1054   1.291       .  A
O1032     Zr1047   2.439   1_554  S
O1032      C1055   1.293       .  A
O1033     Zr1046   2.433       .  S
O1033      C1056   1.291       .  A
O1034     Zr1048   2.430       .  S
O1034      C1057   1.292       .  A
O1035     Zr3064   2.433   1_554  S
O1035      C1058   1.291       .  A
O1036      C1057   1.291       .  A
O1037      C1058   1.294       .  A
O1038     Zr1044   2.448   1_455  S
O1038      C1053   1.294       .  A
O1039     Zr1045   2.439       .  S
O1039      C1056   1.292       .  A
O1040     Zr3061   2.423       .  S
O1040      C1055   1.289       .  A
O1041     Zr3060   2.421       .  S
O1041      C1054   1.288       .  A
O1042     Zr1552   2.438   1_455  S
O1042      C1051   1.292       .  A
O1043     Zr1048   2.458   1_554  S
O1043      C1052   1.297       .  A
Zr1044     O3057   2.442       .  S
Zr1044     O3034   2.339       .  S
Zr1044     O2070   2.343       .  S
Zr1045     O3056   2.414   1_455  S
Zr1045     O3043   2.343   1_455  S
Zr1045     O2057   2.341   1_455  S
Zr1046     O1534   2.430   1_554  S
Zr1046     O1529   2.342   1_554  S
Zr1047     O1535   2.445       .  S
Zr1047     O1522   2.334       .  S
Zr1048     O3051   2.437   1_456  S
Zr1048     O1546   2.441       .  S
Zr1048     O3065   2.337   1_456  S
Zr1048     O1554   2.337       .  S
Zr1048     O3582   2.348   1_455  S
Zr1048     O1060   2.341   1_556  S
O1049     Zr2053   2.337   1_565  S
O1049     Zr3064   2.335   1_554  S
O1050     Zr1552   2.337   1_455  S
C1051      C1480   1.482       .  S
C1052      C1489   1.498       .  S
C1053      C1429   1.480       .  S
C1054      C1420   1.475       .  S
C1055      C1456   1.485       .  S
C1056      C1441   1.470       .  S
C1057      C1393   1.476       .  S
C1058      C1369   1.481       .  S
H1059      O1060   0.964       .  S
H1061      O1062   0.965       .  S
O1062     Zr2052   2.350   1_565  S
O1062     Zr3568   2.342       .  S
O1063     Zr1099   2.434       .  S
O1063      C1074   1.291       .  A
O1064     Zr1098   2.440       .  S
O1064      C1075   1.292       .  A
O1065     Zr1071   2.428   1_455  S
O1065      C1076   1.291       .  A
O1066     Zr3087   2.430       .  S
O1066      C1077   1.290       .  A
O1067     Zr1101   2.432       .  S
O1067      C1077   1.292       .  A
O1068     Zr1100   2.431       .  S
O1068      C1076   1.289       .  A
O1069     Zr1071   2.446       .  S
O1069      C1075   1.293       .  A
O1070     Zr1071   2.437       .  S
O1070      C1074   1.293   1_655  A
Zr1071     O3082   2.426       .  S
Zr1071     O3088   2.335       .  S
Zr1071     O1073   2.340   1_655  S
Zr1071     O3097   2.346       .  S
Zr1071     O1079   2.335   1_655  S
O1072     Zr3087   2.335       .  S
O1072     Zr3114   2.339       .  S
O1072     Zr1101   2.331       .  S
O1073     Zr1099   2.338       .  S
O1073     Zr1100   2.334       .  S
C1074      C1504   1.481       .  S
C1075      C1465   1.483       .  S
C1076      C1297   1.488       .  S
C1077      C1273   1.482       .  S
H1078      O1079   0.968       .  S
O1079     Zr1098   2.344   1_455  S
O1079     Zr1100   2.343       .  S
H1080      O1081   0.965       .  S
O1081     Zr3087   2.339       .  S
O1081     Zr3115   2.349       .  S
O1081     Zr1101   2.338       .  S
O1082     Zr1098   2.436   1_455  S
O1082      C1105   1.292       .  A
O1083     Zr1099   2.437       .  S
O1083      C1106   1.289       .  A
O1084     Zr1100   2.432       .  S
O1084      C1107   1.291       .  A
O1085     Zr1101   2.447       .  S
O1085      C1108   1.294       .  A
O1086     Zr1101   2.436       .  S
O1086      C1109   1.292       .  A
O1087     Zr1100   2.450       .  S
O1087      C1110   1.293       .  A
O1088     Zr1102   2.431       .  S
O1088      C1111   1.291       .  A
O1089     Zr3118   2.440       .  S
O1089      C1112   1.293       .  A
O1090     Zr1100   2.440       .  S
O1090      C1111   1.293       .  A
O1091     Zr1101   2.417       .  S
O1091      C1112   1.288       .  A
O1092     Zr1098   2.436   1_455  S
O1092      C1107   1.292       .  A
O1093     Zr1099   2.447       .  S
O1093      C1110   1.293       .  A
O1094     Zr3115   2.450       .  S
O1094      C1109   1.295       .  A
O1095     Zr3114   2.427       .  S
O1095      C1108   1.290       .  A
O1096     Zr1102   2.437       .  S
O1096      C1105   1.292       .  A
O1097     Zr1102   2.449       .  S
O1097      C1106   1.295       .  A
Zr1098     O3111   2.447       .  S
Zr1098     O3088   2.334       .  S
Zr1098     O1104   2.344   1_655  S
Zr1098     O3132   2.341       .  S
Zr1099     O3110   2.435   1_455  S
Zr1099     O3097   2.348   1_455  S
Zr1099     O3119   2.339   1_455  S
Zr1099     O1114   2.334       .  S
Zr1100     O1104   2.342       .  S
Zr1100     O1114   2.338       .  S
Zr1101     O1103   2.344       .  S
Zr1101     O1116   2.338       .  S
Zr1102     O3105   2.439   1_455  S
Zr1102     O3119   2.336   1_455  S
Zr1102     O1104   2.341       .  S
Zr1102     O3132   2.345   1_455  S
Zr1102     O1114   2.338       .  S
O1103     Zr3115   2.337       .  S
O1103     Zr3118   2.336       .  S
C1105      C1477   1.479       .  S
C1106      C1492   1.502       .  S
C1107      C1348   1.469       .  S
C1108      C1360   1.479       .  S
C1109      C1321   1.481       .  S
C1110      C1333   1.477       .  S
C1111      C1309   1.477       .  S
C1112      C1285   1.470       .  S
H1113      O1114   0.966       .  S
H1115      O1116   0.962       .  S
O1116     Zr3114   2.336       .  S
O1116     Zr3118   2.341       .  S
O1117     Zr1153   2.439       .  S
O1117      C1128   1.293       .  A
O1118     Zr1152   2.427   1_545  S
O1118      C1129   1.290   1_545  A
O1119     Zr1125   2.451   1_565  S
O1119      C1130   1.294       .  A
O1120      C1131   1.298       .  A
O1121     Zr1155   2.438       .  S
O1121      C1131   1.292       .  A
O1122     Zr1154   2.437       .  S
O1122      C1130   1.292       .  A
O1123     Zr1125   2.430   1_565  S
O1123      C1129   1.291       .  A
O1124     Zr1125   2.436       .  S
O1124      C1128   1.291       .  A
Zr1125     O1127   2.332   1_545  S
Zr1125     O1133   2.343   1_545  S
O1126     Zr1155   2.338       .  S
O1127     Zr1153   2.333   1_565  S
O1127     Zr1154   2.341       .  S
C1130      C1237   1.481       .  S
C1131      C1225   1.500       .  S
H1132      O1133   0.966       .  S
O1133     Zr1152   2.343       .  S
O1133     Zr1154   2.338       .  S
H1134      O1135   0.966       .  S
O1135     Zr1155   2.344       .  S
O1136     Zr1152   2.443       .  S
O1136      C1159   1.293       .  A
O1137     Zr1153   2.422   1_565  S
O1137      C1160   1.290       .  A
O1138     Zr1154   2.426       .  S
O1138      C1161   1.289       .  A
O1139     Zr1155   2.434       .  S
O1139      C1162   1.293       .  A
O1140     Zr1155   2.431       .  S
O1140      C1163   1.290       .  A
O1141     Zr1154   2.414       .  S
O1141      C1164   1.288       .  A
O1142     Zr1156   2.432       .  S
O1142      C1165   1.291       .  A
O1143      C1166   1.294       .  A
O1144     Zr1154   2.457       .  S
O1144      C1165   1.295       .  A
O1145     Zr1155   2.446       .  S
O1145      C1166   1.293       .  A
O1146     Zr1152   2.433       .  S
O1146      C1161   1.292       .  A
O1147     Zr1153   2.461   1_565  S
O1147      C1164   1.297       .  A
O1148      C1163   1.294       .  A
O1149      C1162   1.288       .  A
O1150     Zr1156   2.433       .  S
O1150      C1159   1.292       .  A
O1151     Zr1156   2.425       .  S
O1151      C1160   1.290       .  A
Zr1152     O1158   2.335       .  S
Zr1153     O1168   2.348   1_545  S
Zr1154     O1158   2.331       .  S
Zr1154     O1168   2.335       .  S
Zr1155     O1157   2.335       .  S
Zr1155     O1170   2.339       .  S
Zr1156     O1158   2.335       .  S
Zr1156     O1168   2.343       .  S
C1161      C1312   1.474       .  S
C1162      C1300   1.488       .  S
C1163      C1276   1.484       .  S
C1164      C1288   1.476       .  S
C1165      C1252   1.483       .  S
C1166      C1261   1.485       .  S
H1167      O1168   0.967       .  S
H1169      O1170   0.965       .  S
O1171     Zr1207   2.431       .  S
O1171      C1182   1.291       .  A
O1172     Zr1206   2.435       .  S
O1172      C1183   1.292       .  A
O1173     Zr1683   2.455   1_554  S
O1173      C1184   1.295       .  A
O1174     Zr1179   2.427       .  S
O1174      C1185   1.290       .  A
O1175     Zr1209   2.431       .  S
O1175      C1185   1.291       .  A
O1176     Zr1208   2.438       .  S
O1176      C1184   1.291       .  A
O1177     Zr1179   2.436       .  S
O1177      C1183   1.292       .  A
O1178     Zr1179   2.436       .  S
O1178      C1182   1.291       .  A
Zr1179     O1677   2.436       .  S
Zr1179     O1180   2.343       .  S
Zr1179     O1685   2.334       .  S
Zr1179     O1189   2.340       .  S
Zr1179     O1691   2.339       .  S
O1180     Zr1206   2.342       .  S
O1180     Zr1209   2.345       .  S
O1181     Zr1683   2.342   1_554  S
O1181     Zr1711   2.338   1_554  S
O1181     Zr1208   2.337       .  S
C1182      C1912   1.473       .  S
C1183      C1900   1.476       .  S
C1184      C1336   1.476       .  S
C1185      C1345   1.466       .  S
H1186      O1187   0.968       .  S
O1187     Zr1683   2.342   1_554  S
O1187     Zr1710   2.350   1_554  S
O1187     Zr1208   2.349       .  S
H1188      O1189   0.979       .  S
O1189     Zr1207   2.334       .  S
O1189     Zr1209   2.343       .  S
O1190     Zr1206   2.437       .  S
O1190      C1213   1.292       .  A
O1191     Zr1207   2.421       .  S
O1191      C1214   1.289       .  A
O1192     Zr1208   2.440       .  S
O1192      C1215   1.293       .  A
O1193     Zr1209   2.445       .  S
O1193      C1216   1.293       .  A
O1194     Zr1209   2.443       .  S
O1194      C1217   1.293       .  A
O1195     Zr1208   2.453       .  S
O1195      C1218   1.295       .  A
O1196     Zr1714   2.439   1_554  S
O1196      C1219   1.293       .  A
O1197     Zr1210   2.443       .  S
O1197      C1220   1.293       .  A
O1198     Zr1208   2.435       .  S
O1198      C1219   1.291       .  A
O1199     Zr1209   2.444       .  S
O1199      C1220   1.293       .  A
O1200     Zr1710   2.447   1_554  S
O1200      C1215   1.294       .  A
O1201     Zr1711   2.450   1_554  S
O1201      C1218   1.294       .  A
O1202     Zr1207   2.443       .  S
O1202      C1217   1.293       .  A
O1203     Zr1206   2.447       .  S
O1203      C1216   1.294       .  A
O1204     Zr1210   2.437       .  S
O1204      C1213   1.292       .  A
O1205     Zr1210   2.446       .  S
O1205      C1214   1.294       .  A
Zr1206     O1704   2.450       .  S
Zr1206     O1691   2.345       .  S
Zr1206     O1716   2.341       .  S
Zr1206     O1224   2.339       .  S
Zr1207     O1705   2.439       .  S
Zr1207     O1685   2.337       .  S
Zr1207     O1211   2.345       .  S
Zr1207     O1726   2.338       .  S
Zr1208     O1212   2.343       .  S
Zr1208     O1222   2.337       .  S
Zr1209     O1211   2.342       .  S
Zr1209     O1224   2.336       .  S
Zr1210     O1700   2.440       .  S
Zr1210     O1211   2.340       .  S
Zr1210     O1716   2.343       .  S
Zr1210     O1224   2.339       .  S
Zr1210     O1726   2.341       .  S
O1212     Zr1710   2.340   1_554  S
O1212     Zr1714   2.336   1_554  S
C1213      C1876   1.479       .  S
C1214      C1888   1.475       .  S
C1215      C1240   1.483       .  S
C1216      C1249   1.483       .  S
C1217      C1264   1.483       .  S
C1218      C1228   1.495       .  S
C1219      C1324   1.476       .  S
C1220      C1357   1.481       .  S
H1221      O1222   0.962       .  S
O1222     Zr1711   2.342   1_554  S
O1222     Zr1714   2.341   1_554  S
H1223      O1224   0.966       .  S
C1225      C1226   1.405       .  A
C1225      C1230   1.421       .  A
C1226      C1227   1.402       .  A
C1226      H1235   1.077       .  S
C1227      C1228   1.416       .  A
C1227      S1231   1.803       .  S
C1228      C1229   1.405       .  A
C1229      C1230   1.404       .  A
C1229      H1236   1.084       .  S
C1230      S1232   1.797       .  S
S1231      H1234   1.408       .  S
S1232      H1233   1.408       .  S
C1237      C1238   1.402       .  A
C1237      C1242   1.416       .  A
C1238      C1239   1.398       .  A
C1238      H1247   1.084       .  S
C1239      C1240   1.415       .  A
C1239      S1243   1.804       .  S
C1240      C1241   1.406       .  A
C1241      C1242   1.405       .  A
C1241      H1248   1.084       .  S
C1242      S1244   1.806       .  S
S1243      H1246   1.407       .  S
S1244      H1245   1.404       .  S
C1249      C1250   1.403       .  A
C1249      C1254   1.414       .  A
C1250      C1251   1.401       .  A
C1250      H1259   1.084       .  S
C1251      C1252   1.416       .  A
C1251      S1255   1.804       .  S
C1252      C1253   1.404       .  A
C1253      C1254   1.406       .  A
C1253      H1260   1.083       .  S
C1254      S1256   1.808       .  S
S1255      H1258   1.406       .  S
S1256      H1257   1.406       .  S
C1261      C1262   1.406       .  A
C1261      C1266   1.416       .  A
C1262      C1263   1.403       .  A
C1262      H1271   1.084       .  S
C1263      C1264   1.416       .  A
C1263      S1267   1.805       .  S
C1264      C1265   1.404       .  A
C1265      C1266   1.402       .  A
C1265      H1272   1.084       .  S
C1266      S1268   1.805       .  S
S1267      H1270   1.407       .  S
S1268      H1269   1.407       .  S
C1273      C1274   1.405       .  A
C1273      C1278   1.415       .  A
C1274      C1275   1.397       .  A
C1274      H1283   1.084       .  S
C1275      C1276   1.418       .  A
C1275      S1279   1.804       .  S
C1276      C1277   1.405       .  A
C1277      C1278   1.398       .  A
C1277      H1284   1.084       .  S
C1278      S1280   1.804       .  S
S1279      H1282   1.407       .  S
S1280      H1281   1.408       .  S
C1285      C1286   1.401       .  A
C1285      C1290   1.414       .  A
C1286      C1287   1.395       .  A
C1286      H1295   1.085       .  S
C1287      C1288   1.411       .  A
C1287      S1291   1.793       .  S
C1288      C1289   1.405       .  A
C1289      C1290   1.397       .  A
C1289      H1296   1.084       .  S
C1290      S1292   1.804       .  S
S1291      H1294   1.404       .  S
S1292      H1293   1.407       .  S
C1297      C1298   1.407       .  A
C1297      C1302   1.416       .  A
C1298      C1299   1.398       .  A
C1298      H1307   1.082       .  S
C1299      C1300   1.418       .  A
C1299      S1303   1.804       .  S
C1300      C1301   1.404       .  A
C1301      C1302   1.393       .  A
C1301      H1308   1.080       .  S
C1302      S1304   1.803       .  S
S1303      H1306   1.408       .  S
S1304      H1305   1.408       .  S
C1309      C1310   1.402       .  A
C1309      C1314   1.415       .  A
C1310      C1311   1.397       .  A
C1310      H1319   1.084       .  S
C1311      C1312   1.415       .  A
C1311      S1315   1.803       .  S
C1312      C1313   1.401       .  A
C1313      C1314   1.396       .  A
C1313      H1320   1.084       .  S
C1314      S1316   1.798       .  S
S1315      H1318   1.407       .  S
S1316      H1317   1.405       .  S
C1321      C1322   1.405       .  A
C1321      C1326   1.414       .  A
C1322      C1323   1.400       .  A
C1322      H1331   1.084       .  S
C1323      C1324   1.414       .  A
C1323      S1327   1.806       .  S
C1324      C1325   1.403       .  A
C1325      C1326   1.399       .  A
C1325      H1332   1.084       .  S
C1326      S1328   1.802       .  S
S1327      H1330   1.406       .  S
S1328      H1329   1.407       .  S
C1333      C1334   1.404       .  A
C1333      C1338   1.412       .  A
C1334      C1335   1.405       .  A
C1334      H1343   1.084       .  S
C1335      C1336   1.414       .  A
C1335      S1339   1.805       .  S
C1336      C1337   1.401       .  A
C1337      C1338   1.400       .  A
C1337      H1344   1.082       .  S
C1338      S1340   1.803       .  S
S1339      H1342   1.405       .  S
S1340      H1341   1.405       .  S
C1345      C1346   1.403       .  A
C1345      C1350   1.411       .  A
C1346      C1347   1.401       .  A
C1346      H1355   1.084       .  S
C1347      C1348   1.412       .  A
C1347      S1351   1.808       .  S
C1348      C1349   1.401       .  A
C1349      C1350   1.395       .  A
C1349      H1356   1.084       .  S
C1350      S1352   1.805       .  S
S1351      H1354   1.408       .  S
S1352      H1353   1.407       .  S
C1357      C1358   1.404       .  A
C1357      C1362   1.416       .  A
C1358      C1359   1.399       .  A
C1358      H1367   1.084       .  S
C1359      C1360   1.413       .  A
C1359      S1363   1.804       .  S
C1360      C1361   1.405       .  A
C1361      C1362   1.401       .  A
C1361      H1368   1.084       .  S
C1362      S1364   1.804       .  S
S1363      H1366   1.408       .  S
S1364      H1365   1.407       .  S
C1369      C1874   1.403   1_554  A
C1369      C1374   1.416       .  A
C1370      C1873   1.404       .  A
C1370      C1371   1.397       .  A
C1370      H1379   1.084       .  S
C1371      C1876   1.415       .  A
C1371      S1375   1.805       .  S
C1372      C1717   1.481       .  S
C1372      C1875   1.416       .  A
C1372      C1373   1.404   1_556  A
C1373      C1374   1.401       .  A
C1373      H1380   1.084       .  S
C1374      S1376   1.803       .  S
S1375      H1378   1.407       .  S
S1376      H1377   1.407       .  S
C1381      C1382   1.403   1_556  A
C1381      C1890   1.416       .  A
C1382      C1383   1.396       .  A
C1382      H1391   1.084       .  S
C1383      C1384   1.412       .  A
C1383      S1387   1.805       .  S
C1384      C1718   1.474       .  S
C1384      C1889   1.404   1_554  A
C1385      C1888   1.405       .  A
C1385      C1386   1.399       .  A
C1385      H1392   1.084       .  S
C1386      C1885   1.415       .  A
C1386      S1388   1.804       .  S
S1387      H1390   1.406       .  S
S1388      H1389   1.407       .  S
C1393      C1394   1.401   1_556  A
C1393      C1902   1.417       .  A
C1394      C1395   1.391       .  A
C1394      H1403   1.084       .  S
C1395      C1396   1.411   1_554  A
C1395      S1399   1.803       .  S
C1396      C1687   1.473       .  S
C1396      C1901   1.406       .  A
C1397      C1900   1.405       .  A
C1397      C1398   1.400       .  A
C1397      H1404   1.084       .  S
C1398      C1897   1.415       .  A
C1398      S1400   1.804       .  S
S1399      H1402   1.408       .  S
S1400      H1401   1.407       .  S
C1405      C1910   1.407   1_554  A
C1405      C1410   1.414       .  A
C1406      C1909   1.402       .  A
C1406      C1407   1.398       .  A
C1406      H1415   1.084       .  S
C1407      C1912   1.414       .  A
C1407      S1411   1.805       .  S
C1408      C1686   1.477       .  S
C1408      C1911   1.415       .  A
C1408      C1409   1.403   1_556  A
C1409      C1410   1.393       .  A
C1409      H1416   1.084       .  S
C1410      S1412   1.803       .  S
S1411      H1414   1.406       .  S
S1412      H1413   1.406       .  S
C1417      C1418   1.404       .  A
C1418      C1419   1.395       .  A
C1418      H1427   1.084       .  S
C1419      C1420   1.415       .  A
C1419      S1423   1.804       .  S
C1421      C1422   1.397       .  A
C1421      H1428   1.084       .  S
C1422      S1424   1.806       .  S
S1423      H1426   1.408       .  S
S1424      H1425   1.407       .  S
C1429      C1434   1.416       .  A
C1430      C1431   1.403       .  A
C1430      H1439   1.084       .  S
C1431      S1435   1.805       .  S
C1432      C1433   1.403       .  A
C1433      C1434   1.398       .  A
C1433      H1440   1.084       .  S
C1434      S1436   1.805       .  S
S1435      H1438   1.407       .  S
S1436      H1437   1.407       .  S
C1441      C1446   1.412       .  A
C1442      C1443   1.395       .  A
C1442      H1451   1.084       .  S
C1443      S1447   1.805       .  S
C1444      C1445   1.401       .  A
C1445      C1446   1.396       .  A
C1445      H1452   1.084       .  S
C1446      S1448   1.805       .  S
S1447      H1450   1.407       .  S
S1448      H1449   1.405       .  S
C1453      C1458   1.420       .  A
C1454      C1455   1.398       .  A
C1454      H1463   1.080       .  S
C1455      S1459   1.803       .  S
C1456      C1457   1.402       .  A
C1457      C1458   1.395       .  A
C1457      H1464   1.084       .  S
C1458      S1460   1.797       .  S
S1459      H1462   1.408       .  S
S1460      H1461   1.406       .  S
C1465      C3482   1.405       .  A
C1465      C1470   1.414   1_655  A
C1466      C3481   1.404       .  A
C1466      C1467   1.402       .  A
C1466      H1475   1.084       .  S
C1467      C3484   1.415       .  A
C1467      S1471   1.805       .  S
C1468      C3483   1.417       .  A
C1468      C1469   1.402   1_655  A
C1469      C1470   1.399       .  A
C1469      H1476   1.084       .  S
C1470      S1472   1.801       .  S
S1471      H1474   1.406       .  S
S1472      H1473   1.408       .  S
C1477      C1478   1.404       .  A
C1477      C3498   1.414   1_455  A
C1478      C1479   1.400       .  A
C1478      H1487   1.084       .  S
C1479      C1480   1.417       .  A
C1479      S1483   1.804       .  S
C1480      C3497   1.404   1_455  A
C1481      C3496   1.406       .  A
C1481      C1482   1.400       .  A
C1481      H1488   1.084       .  S
C1482      C3493   1.415       .  A
C1482      S1484   1.805       .  S
S1483      H1486   1.407       .  S
S1484      H1485   1.407       .  S
C1489      C1490   1.405       .  A
C1489      C3510   1.421       .  A
C1490      C1491   1.398       .  A
C1490      H1499   1.083       .  S
C1491      C1492   1.421       .  A
C1491      S1495   1.802       .  S
C1492      C3509   1.409       .  A
C1493      C3508   1.408       .  A
C1493      C1494   1.403       .  A
C1493      H1500   1.080       .  S
C1494      C3505   1.420       .  A
C1494      S1496   1.813       .  S
S1495      H1498   1.408       .  S
S1496      H1497   1.406       .  S
C1501      C3518   1.403   1_655  A
C1501      C1506   1.413       .  A
C1502      C3517   1.405       .  A
C1502      C1503   1.405       .  A
C1502      H1511   1.083       .  S
C1503      C3520   1.415       .  A
C1503      S1507   1.808       .  S
C1504      C3519   1.415       .  A
C1504      C1505   1.404   1_455  A
C1505      C1506   1.403       .  A
C1505      H1512   1.083       .  S
C1506      S1508   1.810       .  S
S1507      H1510   1.407       .  S
S1508      H1509   1.406       .  S
O1513     Zr1549   2.432       .  S
O1513      C1524   1.290       .  A
O1514     Zr1548   2.448   1_655  S
O1514      C1525   1.294       .  A
O1515     Zr1521   2.439   1_455  S
O1515      C1526   1.292       .  A
O1516     Zr3537   2.433       .  S
O1516      C1527   1.292       .  A
O1517     Zr1551   2.429       .  S
O1517      C1527   1.290       .  A
O1518     Zr1550   2.427       .  S
O1518      C1526   1.290       .  A
O1519      C1525   1.292       .  A
O1520     Zr1521   2.444       .  S
O1520      C1524   1.294       .  A
Zr1521     O3532   2.437       .  S
Zr1521     O3034   2.338       .  S
Zr1521     O1523   2.337   1_655  S
Zr1521     O3547   2.340       .  S
O1522     Zr3033   2.338       .  S
O1522     Zr3564   2.340       .  S
O1523     Zr1549   2.334   1_455  S
O1523     Zr1550   2.335       .  S
C1524      C2005   1.485       .  S
C1525      C1972   1.479       .  S
C1526      C1909   1.472       .  S
C1527      C1885   1.475       .  S
H1528      O1529   0.968       .  S
O1529     Zr1548   2.338       .  S
H1530      O1531   0.964       .  S
O1531     Zr3537   2.339       .  S
O1531     Zr3565   2.339       .  S
O1531     Zr1551   2.344       .  S
O1532      C1555   1.296       .  A
O1533      C1556   1.287       .  A
O1534      C1557   1.291       .  A
O1535      C1558   1.294       .  A
O1536     Zr1551   2.432       .  S
O1536      C1559   1.292       .  A
O1537     Zr1550   2.450       .  S
O1537      C1560   1.295       .  A
O1538     Zr1552   2.433   1_455  S
O1538      C1561   1.292       .  A
O1539     Zr3568   2.436       .  S
O1539      C1562   1.291       .  A
O1540      C1561   1.291       .  A
O1541      C1562   1.294       .  A
O1542     Zr1548   2.435       .  S
O1542      C1557   1.292       .  A
O1543     Zr1549   2.430   1_455  S
O1543      C1560   1.290       .  A
O1544     Zr3565   2.433       .  S
O1544      C1559   1.291       .  A
O1545     Zr3564   2.431       .  S
O1545      C1558   1.291       .  A
O1546      C1555   1.293       .  A
O1547     Zr1552   2.454       .  S
O1547      C1556   1.296       .  A
Zr1548     O3561   2.425   1_455  S
Zr1548     O3538   2.336   1_455  S
Zr1548     O2574   2.348   1_455  S
Zr1549     O3560   2.431       .  S
Zr1549     O3547   2.336       .  S
Zr1549     O2561   2.335       .  S
Zr1552     O3555   2.436       .  S
Zr1552     O3569   2.333       .  S
Zr1552     O3078   2.345       .  S
Zr1552     O1564   2.342   1_655  S
O1553     Zr2557   2.334   1_565  S
O1553     Zr3568   2.333       .  S
C1555      C1984   1.491       .  S
C1556      C1993   1.500       .  S
C1557      C1933   1.476       .  S
C1558      C1924   1.476       .  S
C1559      C1960   1.484       .  S
C1560      C1945   1.479       .  S
C1561      C1897   1.475       .  S
C1562      C1873   1.482       .  S
H1563      O1564   0.965       .  S
H1565      O1566   0.965       .  S
O1566     Zr2556   2.346   1_565  S
O1566     Zr3064   2.342       .  S
O1567     Zr1603   2.422   1_455  S
O1567      C1578   1.288       .  A
O1568     Zr1602   2.448   1_655  S
O1568      C1579   1.294   1_655  A
O1569     Zr1575   2.412       .  S
O1569      C1580   1.288       .  A
O1570     Zr3591   2.423       .  S
O1570      C1581   1.289       .  A
O1571     Zr1605   2.444       .  S
O1571      C1581   1.293       .  A
O1572     Zr1604   2.435       .  S
O1572      C1580   1.291       .  A
O1573     Zr1575   2.455       .  S
O1573      C1579   1.295       .  A
O1574     Zr1575   2.464       .  S
O1574      C1578   1.298       .  A
Zr1575     O3586   2.427   1_455  S
Zr1575     O3592   2.339   1_455  S
Zr1575     O1577   2.338       .  S
Zr1575     O3601   2.338   1_455  S
Zr1575     O1583   2.347       .  S
O1576     Zr3591   2.340       .  S
O1576     Zr3618   2.344       .  S
O1576     Zr1605   2.338       .  S
O1577     Zr1603   2.339   1_455  S
O1577     Zr1604   2.335       .  S
C1578      C2008   1.489       .  S
C1579      C1969   1.481       .  S
C1580      C1801   1.477       .  S
C1581      C1777   1.475       .  S
H1582      O1583   0.964       .  S
O1583     Zr1602   2.347       .  S
O1583     Zr1604   2.339       .  S
H1584      O1585   0.965       .  S
O1585     Zr3591   2.341       .  S
O1585     Zr3619   2.340       .  S
O1585     Zr1605   2.336       .  S
O1586     Zr1602   2.460       .  S
O1586      C1609   1.296       .  A
O1587     Zr1603   2.426       .  S
O1587      C1610   1.288       .  A
O1588     Zr1604   2.428       .  S
O1588      C1611   1.290       .  A
O1589     Zr1605   2.424       .  S
O1589      C1612   1.289       .  A
O1590     Zr1605   2.438       .  S
O1590      C1613   1.291       .  A
O1591     Zr1604   2.440       .  S
O1591      C1614   1.292       .  A
O1592     Zr1606   2.441   1_455  S
O1592      C1615   1.293       .  A
O1593     Zr3622   2.433       .  S
O1593      C1616   1.292       .  A
O1594     Zr1604   2.424       .  S
O1594      C1615   1.290       .  A
O1595     Zr1605   2.430       .  S
O1595      C1616   1.290       .  A
O1596     Zr1602   2.434       .  S
O1596      C1611   1.291       .  A
O1597     Zr1603   2.444   1_455  S
O1597      C1614   1.292       .  A
O1598     Zr3619   2.436       .  S
O1598      C1613   1.292       .  A
O1599     Zr3618   2.421       .  S
O1599      C1612   1.289       .  A
O1600     Zr1606   2.452   1_455  S
O1600      C1609   1.295       .  A
O1601     Zr1606   2.448       .  S
O1601      C1610   1.296       .  A
Zr1602     O3615   2.429   1_455  S
Zr1602     O3592   2.343   1_455  S
Zr1602     O1608   2.335       .  S
Zr1602     O3636   2.341   1_455  S
Zr1603     O3614   2.445       .  S
Zr1603     O3601   2.340       .  S
Zr1603     O3623   2.335       .  S
Zr1603     O1618   2.338   1_655  S
Zr1604     O1608   2.340       .  S
Zr1604     O1618   2.338       .  S
Zr1605     O1607   2.344       .  S
Zr1605     O1620   2.344       .  S
Zr1606     O3609   2.434       .  S
Zr1606     O3623   2.340       .  S
Zr1606     O1608   2.337   1_655  S
Zr1606     O3636   2.346       .  S
Zr1606     O1618   2.339   1_655  S
O1607     Zr3619   2.336       .  S
O1607     Zr3622   2.345       .  S
C1609      C1981   1.497       .  S
C1610      C1996   1.498       .  S
C1611      C1852   1.468       .  S
C1612      C1864   1.465       .  S
C1613      C1825   1.473       .  S
C1614      C1837   1.470       .  S
C1615      C1813   1.472       .  S
C1616      C1789   1.466       .  S
H1617      O1618   0.967       .  S
H1619      O1620   0.968       .  S
O1620     Zr3618   2.336       .  S
O1620     Zr3622   2.341       .  S
O1621     Zr1657   2.446       .  S
O1621      C1632   1.295       .  A
O1622     Zr1656   2.453       .  S
O1622      C1633   1.295       .  A
O1623     Zr1629   2.447   1_565  S
O1623      C1634   1.294       .  A
O1624      C1635   1.295       .  A
O1625     Zr1659   2.444       .  S
O1625      C1635   1.293       .  A
O1626     Zr1658   2.438       .  S
O1626      C1634   1.292       .  A
O1627     Zr1629   2.428       .  S
O1627      C1633   1.290   1_545  A
O1628     Zr1629   2.429       .  S
O1628      C1632   1.290       .  A
Zr1629     O1631   2.339   1_545  S
Zr1629     O1637   2.340   1_545  S
O1630     Zr1659   2.339       .  S
O1631     Zr1657   2.342   1_565  S
O1631     Zr1658   2.339       .  S
C1634      C1741   1.485       .  S
C1635      C1729   1.498       .  S
H1636      O1637   0.966       .  S
O1637     Zr1656   2.335       .  S
O1637     Zr1658   2.337       .  S
H1638      O1639   0.966       .  S
O1639     Zr1659   2.337       .  S
O1640     Zr1656   2.442       .  S
O1640      C1663   1.293       .  A
O1641     Zr1657   2.455   1_565  S
O1641      C1664   1.296       .  A
O1642     Zr1658   2.427       .  S
O1642      C1665   1.290       .  A
O1643     Zr1659   2.428       .  S
O1643      C1666   1.291       .  A
O1644     Zr1659   2.431       .  S
O1644      C1667   1.291       .  A
O1645     Zr1658   2.414       .  S
O1645      C1668   1.288       .  A
O1646     Zr1660   2.452       .  S
O1646      C1669   1.294       .  A
O1647      C1670   1.294       .  A
O1648     Zr1658   2.436       .  S
O1648      C1669   1.291       .  A
O1649     Zr1659   2.445       .  S
O1649      C1670   1.294       .  A
O1650     Zr1656   2.438       .  S
O1650      C1665   1.292       .  A
O1651     Zr1657   2.443   1_565  S
O1651      C1668   1.293       .  A
O1652      C1667   1.293       .  A
O1653      C1666   1.291       .  A
O1654     Zr1660   2.415       .  S
O1654      C1663   1.289       .  A
O1655     Zr1660   2.428       .  S
O1655      C1664   1.290       .  A
Zr1656     O1662   2.337       .  S
Zr1657     O1672   2.343   1_545  S
Zr1658     O1662   2.333       .  S
Zr1658     O1672   2.342       .  S
Zr1659     O1661   2.340       .  S
Zr1659     O1674   2.338       .  S
Zr1660     O1662   2.342       .  S
Zr1660     O1672   2.338       .  S
C1665      C1816   1.473       .  S
C1666      C1804   1.481       .  S
C1667      C1780   1.474       .  S
C1668      C1792   1.467       .  S
C1669      C1756   1.480       .  S
C1670      C1765   1.487       .  S
H1671      O1672   0.966       .  S
H1673      O1674   0.965       .  S
O1675     Zr1711   2.427       .  S
O1675      C1686   1.291       .  A
O1676     Zr1710   2.425       .  S
O1676      C1687   1.289       .  A
O1677      C1688   1.290       .  A
O1678     Zr1683   2.446       .  S
O1678      C1689   1.293       .  A
O1679     Zr1713   2.424       .  S
O1679      C1689   1.290       .  A
O1680     Zr1712   2.442       .  S
O1680      C1688   1.292       .  A
O1681     Zr1683   2.434       .  S
O1681      C1687   1.292       .  A
O1682     Zr1683   2.430       .  S
O1682      C1686   1.291       .  A
Zr1683     O1684   2.334       .  S
Zr1683     O1693   2.345       .  S
O1684     Zr1710   2.337       .  S
O1684     Zr1713   2.337       .  S
O1685     Zr1712   2.335       .  S
C1688      C1840   1.467       .  S
C1689      C1849   1.471       .  S
H1690      O1691   0.969       .  S
O1691     Zr1712   2.339       .  S
H1692      O1693   0.979       .  S
O1693     Zr1711   2.340       .  S
O1693     Zr1713   2.335       .  S
O1694     Zr1710   2.429       .  S
O1694      C1717   1.290       .  A
O1695     Zr1711   2.423       .  S
O1695      C1718   1.289   1_556  A
O1696     Zr1712   2.438       .  S
O1696      C1719   1.292       .  A
O1697     Zr1713   2.441       .  S
O1697      C1720   1.292       .  A
O1698     Zr1713   2.457       .  S
O1698      C1721   1.295       .  A
O1699     Zr1712   2.444       .  S
O1699      C1722   1.294       .  A
O1700      C1723   1.293       .  A
O1701     Zr1714   2.427       .  S
O1701      C1724   1.290       .  A
O1702     Zr1712   2.426       .  S
O1702      C1723   1.290       .  A
O1703     Zr1713   2.417       .  S
O1703      C1724   1.289       .  A
O1704      C1719   1.295       .  A
O1705      C1722   1.292       .  A
O1706     Zr1711   2.445       .  S
O1706      C1721   1.293       .  A
O1707     Zr1710   2.447       .  S
O1707      C1720   1.294       .  A
O1708     Zr1714   2.450       .  S
O1708      C1717   1.294       .  A
O1709     Zr1714   2.443       .  S
O1709      C1718   1.294   1_556  A
Zr1710     O1728   2.336       .  S
Zr1711     O1715   2.341       .  S
Zr1712     O1716   2.341       .  S
Zr1712     O1726   2.341       .  S
Zr1713     O1715   2.336       .  S
Zr1713     O1728   2.343       .  S
Zr1714     O1715   2.345       .  S
Zr1714     O1728   2.338       .  S
C1719      C1744   1.487       .  S
C1720      C1753   1.479       .  S
C1721      C1768   1.490       .  S
C1722      C1732   1.490       .  S
C1723      C1828   1.470       .  S
C1724      C1861   1.465       .  S
H1725      O1726   0.963       .  S
H1727      O1728   0.963       .  S
C1729      C1730   1.403       .  A
C1729      C1734   1.417       .  A
C1730      C1731   1.399       .  A
C1730      H1739   1.076       .  S
C1731      C1732   1.417       .  A
C1731      S1735   1.803       .  S
C1732      C1733   1.403       .  A
C1733      C1734   1.400       .  A
C1733      H1740   1.084       .  S
C1734      S1736   1.788       .  S
S1735      H1738   1.408       .  S
S1736      H1737   1.409       .  S
C1741      C1742   1.404       .  A
C1741      C1746   1.415       .  A
C1742      C1743   1.400       .  A
C1742      H1751   1.084       .  S
C1743      C1744   1.418       .  A
C1743      S1747   1.804       .  S
C1744      C1745   1.406       .  A
C1745      C1746   1.403       .  A
C1745      H1752   1.084       .  S
C1746      S1748   1.804       .  S
S1747      H1750   1.407       .  S
S1748      H1749   1.408       .  S
C1753      C1754   1.404       .  A
C1753      C1758   1.414       .  A
C1754      C1755   1.401       .  A
C1754      H1763   1.084       .  S
C1755      C1756   1.415       .  A
C1755      S1759   1.807       .  S
C1756      C1757   1.405       .  A
C1757      C1758   1.402       .  A
C1757      H1764   1.084       .  S
C1758      S1760   1.805       .  S
S1759      H1762   1.402       .  S
S1760      H1761   1.405       .  S
C1765      C1766   1.406       .  A
C1765      C1770   1.415       .  A
C1766      C1767   1.404       .  A
C1766      H1775   1.084       .  S
C1767      C1768   1.418       .  A
C1767      S1771   1.805       .  S
C1768      C1769   1.406       .  A
C1769      C1770   1.403       .  A
C1769      H1776   1.084       .  S
C1770      S1772   1.805       .  S
S1771      H1774   1.407       .  S
S1772      H1773   1.408       .  S
C1777      C1778   1.403       .  A
C1777      C1782   1.415       .  A
C1778      C1779   1.398       .  A
C1778      H1787   1.084       .  S
C1779      C1780   1.415       .  A
C1779      S1783   1.805       .  S
C1780      C1781   1.402       .  A
C1781      C1782   1.396       .  A
C1781      H1788   1.084       .  S
C1782      S1784   1.805       .  S
S1783      H1786   1.408       .  S
S1784      H1785   1.407       .  S
C1789      C1790   1.400       .  A
C1789      C1794   1.414       .  A
C1790      C1791   1.393       .  A
C1790      H1799   1.085       .  S
C1791      C1792   1.409       .  A
C1791      S1795   1.795       .  S
C1792      C1793   1.403       .  A
C1793      C1794   1.397       .  A
C1793      H1800   1.084       .  S
C1794      S1796   1.805       .  S
S1795      H1798   1.406       .  S
S1796      H1797   1.405       .  S
C1801      C1802   1.407       .  A
C1801      C1806   1.411       .  A
C1802      C1803   1.396       .  A
C1802      H1811   1.083       .  S
C1803      C1804   1.413       .  A
C1803      S1807   1.804       .  S
C1804      C1805   1.403       .  A
C1805      C1806   1.392       .  A
C1805      H1812   1.074       .  S
C1806      S1808   1.805       .  S
S1807      H1810   1.408       .  S
S1808      H1809   1.408       .  S
C1813      C1814   1.404       .  A
C1813      C1818   1.413       .  A
C1814      C1815   1.397       .  A
C1814      H1823   1.084       .  S
C1815      C1816   1.414       .  A
C1815      S1819   1.804       .  S
C1816      C1817   1.403       .  A
C1817      C1818   1.397       .  A
C1817      H1824   1.084       .  S
C1818      S1820   1.805       .  S
S1819      H1822   1.404       .  S
S1820      H1821   1.404       .  S
C1825      C1826   1.403       .  A
C1825      C1830   1.412       .  A
C1826      C1827   1.399       .  A
C1826      H1835   1.084       .  S
C1827      C1828   1.415       .  A
C1827      S1831   1.807       .  S
C1828      C1829   1.402       .  A
C1829      C1830   1.398       .  A
C1829      H1836   1.084       .  S
C1830      S1832   1.803       .  S
S1831      H1834   1.405       .  S
S1832      H1833   1.408       .  S
C1837      C1838   1.402       .  A
C1837      C1842   1.410       .  A
C1838      C1839   1.402       .  A
C1838      H1847   1.084       .  S
C1839      C1840   1.413       .  A
C1839      S1843   1.808       .  S
C1840      C1841   1.401       .  A
C1841      C1842   1.397       .  A
C1841      H1848   1.081       .  S
C1842      S1844   1.800       .  S
S1843      H1846   1.404       .  S
S1844      H1845   1.405       .  S
C1849      C1850   1.403       .  A
C1849      C1854   1.413       .  A
C1850      C1851   1.396       .  A
C1850      H1859   1.084       .  S
C1851      C1852   1.412       .  A
C1851      S1855   1.806       .  S
C1852      C1853   1.403       .  A
C1853      C1854   1.399       .  A
C1853      H1860   1.084       .  S
C1854      S1856   1.806       .  S
S1855      H1858   1.404       .  S
S1856      H1857   1.407       .  S
C1861      C1862   1.402       .  A
C1861      C1866   1.413       .  A
C1862      C1863   1.391       .  A
C1862      H1871   1.084       .  S
C1863      C1864   1.412       .  A
C1863      S1867   1.804       .  S
C1864      C1865   1.403       .  A
C1865      C1866   1.394       .  A
C1865      H1872   1.084       .  S
C1866      S1868   1.804       .  S
S1867      H1870   1.407       .  S
S1868      H1869   1.406       .  S
C1873      C1878   1.417       .  A
C1874      C1875   1.398       .  A
C1874      H1883   1.084       .  S
C1875      S1879   1.805       .  S
C1876      C1877   1.404       .  A
C1877      C1878   1.400       .  A
C1877      H1884   1.084       .  S
C1878      S1880   1.803       .  S
S1879      H1882   1.406       .  S
S1880      H1881   1.407       .  S
C1885      C1886   1.403       .  A
C1886      C1887   1.395       .  A
C1886      H1895   1.084       .  S
C1887      C1888   1.412       .  A
C1887      S1891   1.804       .  S
C1889      C1890   1.400       .  A
C1889      H1896   1.084       .  S
C1890      S1892   1.804       .  S
S1891      H1894   1.407       .  S
S1892      H1893   1.406       .  S
C1897      C1898   1.402       .  A
C1898      C1899   1.394       .  A
C1898      H1907   1.084       .  S
C1899      C1900   1.413       .  A
C1899      S1903   1.801       .  S
C1901      C1902   1.403       .  A
C1901      H1908   1.084       .  S
C1902      S1904   1.805       .  S
S1903      H1906   1.406       .  S
S1904      H1905   1.407       .  S
C1909      C1914   1.414       .  A
C1910      C1911   1.400       .  A
C1910      H1919   1.084       .  S
C1911      S1915   1.805       .  S
C1912      C1913   1.403       .  A
C1913      C1914   1.398       .  A
C1913      H1920   1.084       .  S
C1914      S1916   1.805       .  S
S1915      H1918   1.408       .  S
S1916      H1917   1.406       .  S
C1921      C1922   1.403       .  A
C1922      C1923   1.399       .  A
C1922      H1931   1.084       .  S
C1923      C1924   1.416       .  A
C1923      S1927   1.805       .  S
C1925      C1926   1.400       .  A
C1925      H1932   1.084       .  S
C1926      S1928   1.805       .  S
S1927      H1930   1.402       .  S
S1928      H1929   1.408       .  S
C1933      C1938   1.414       .  A
C1934      C1935   1.393       .  A
C1934      H1943   1.084       .  S
C1935      S1939   1.805       .  S
C1936      C1937   1.406       .  A
C1937      C1938   1.400       .  A
C1937      H1944   1.084       .  S
C1938      S1940   1.804       .  S
S1939      H1942   1.404       .  S
S1940      H1941   1.408       .  S
C1945      C1950   1.417       .  A
C1946      C1947   1.398       .  A
C1946      H1955   1.084       .  S
C1947      S1951   1.805       .  S
C1948      C1949   1.401       .  A
C1949      C1950   1.399       .  A
C1949      H1956   1.084       .  S
C1950      S1952   1.805       .  S
S1951      H1954   1.407       .  S
S1952      H1953   1.405       .  S
C1957      C1962   1.417       .  A
C1958      C1959   1.397       .  A
C1958      H1967   1.079       .  S
C1959      S1963   1.801       .  S
C1960      C1961   1.404       .  A
C1961      C1962   1.397       .  A
C1961      H1968   1.084       .  S
C1962      S1964   1.795       .  S
S1963      H1966   1.408       .  S
S1964      H1965   1.408       .  S
C1969      C3986   1.405   1_455  A
C1969      C1974   1.412       .  A
C1970      C3985   1.405       .  A
C1970      C1971   1.402       .  A
C1970      H1979   1.084       .  S
C1971      C3988   1.415       .  A
C1971      S1975   1.806       .  S
C1972      C3987   1.418       .  A
C1972      C1973   1.403   1_655  A
C1973      C1974   1.400       .  A
C1973      H1980   1.084       .  S
C1974      S1976   1.802       .  S
S1975      H1978   1.404       .  S
S1976      H1977   1.404       .  S
C1981      C1982   1.408       .  A
C1981      C4002   1.418   1_455  A
C1982      C1983   1.405       .  A
C1982      H1991   1.084       .  S
C1983      C1984   1.419       .  A
C1983      S1987   1.805       .  S
C1984      C4001   1.404   1_455  A
C1985      C4000   1.405       .  A
C1985      C1986   1.402       .  A
C1985      H1992   1.084       .  S
C1986      C3997   1.416       .  A
C1986      S1988   1.805       .  S
S1987      H1990   1.407       .  S
S1988      H1989   1.407       .  S
C1993      C1994   1.407       .  A
C1993      C4014   1.424       .  A
C1994      C1995   1.399       .  A
C1994      H2003   1.083       .  S
C1995      C1996   1.421       .  A
C1995      S1999   1.802   1_655  S
C1996      C4013   1.406       .  A
C1997      C4012   1.408       .  A
C1997      C1998   1.405       .  A
C1997      H2004   1.081       .  S
C1998      C4009   1.422       .  A
C1998      S2000   1.812       .  S
S1999      H2002   1.408       .  S
S2000      H2001   1.407       .  S
C2005      C4022   1.403   1_655  A
C2005      C2010   1.416       .  A
C2006      C4021   1.406       .  A
C2006      C2007   1.404       .  A
C2006      H2015   1.083       .  S
C2007      C4024   1.416       .  A
C2007      S2011   1.809       .  S
C2008      C4023   1.419       .  A
C2008      C2009   1.404   1_455  A
C2009      C2010   1.404       .  A
C2009      H2016   1.082       .  S
C2010      S2012   1.811       .  S
S2011      H2014   1.407       .  S
S2012      H2013   1.406       .  S
O2017     Zr2053   2.440       .  S
O2017      C2028   1.292       .  A
O2018     Zr2052   2.450       .  S
O2018      C2029   1.295       .  A
O2019     Zr2025   2.444   1_554  S
O2019      C2030   1.293       .  A
O2020      C2031   1.291       .  A
O2021     Zr2055   2.436   1_545  S
O2021      C2031   1.292       .  A
O2022     Zr2054   2.416       .  S
O2022      C2030   1.288   1_556  A
O2023     Zr2529   2.436       .  S
O2023      C2029   1.292       .  A
O2024     Zr2025   2.446   1_554  S
O2024      C2028   1.294       .  A
Zr2025     O2527   2.435       .  S
Zr2025     O2027   2.335   1_556  S
Zr2025     O2537   2.345       .  S
O2026     Zr2559   2.333   1_545  S
O2027     Zr2053   2.333       .  S
O2027     Zr2054   2.342   1_554  S
C2028      C2509   1.483       .  S
C2029      C2476   1.482       .  S
C2030      C2413   1.471       .  S
C2031      C2389   1.475       .  S
H2032      O2033   0.968       .  S
O2033     Zr2529   2.350       .  S
O2033     Zr2052   2.344       .  S
O2033     Zr2558   2.342       .  S
H2034      O2035   0.964       .  S
O2035     Zr2055   2.346   1_544  S
O2036     Zr3060   2.439       .  S
O2036      C2059   1.292       .  A
O2037     Zr3061   2.433       .  S
O2037      C2060   1.289       .  A
O2038     Zr2558   2.446       .  S
O2038      C2061   1.293   1_545  A
O2039     Zr2559   2.437   1_545  S
O2039      C2062   1.292       .  A
O2040     Zr2055   2.442   1_544  S
O2040      C2063   1.294       .  A
O2041     Zr2054   2.431   1_554  S
O2041      C2064   1.291       .  A
O2042     Zr2056   2.426       .  S
O2042      C2065   1.291       .  A
O2043      C2066   1.291       .  A
O2044     Zr3062   2.439       .  S
O2044      C2065   1.292       .  A
O2045     Zr3063   2.436       .  S
O2045      C2066   1.292       .  A
O2046     Zr2052   2.445   1_565  S
O2046      C2061   1.293       .  A
O2047     Zr2053   2.427       .  S
O2047      C2064   1.290       .  A
O2048      C2063   1.287       .  A
O2049      C2062   1.290       .  A
O2050     Zr2560   2.451       .  S
O2050      C2059   1.295       .  A
O2051     Zr2056   2.450   1_554  S
O2051      C2060   1.296       .  A
Zr2052     O3044   2.440   1_545  S
Zr2052     O3066   2.332   1_545  S
Zr2053     O3045   2.424   1_545  S
Zr2053     O3076   2.342   1_545  S
Zr2054     O2542   2.437       .  S
Zr2054     O3052   2.421   1_545  S
Zr2054     O2537   2.337       .  S
Zr2054     O3570   2.332   1_545  S
Zr2054     O3076   2.335   1_546  S
Zr2055     O2543   2.449   1_565  S
Zr2055     O3053   2.452       .  S
Zr2055     O2530   2.340   1_565  S
Zr2055     O3065   2.342   1_556  S
Zr2055     O3582   2.339       .  S
Zr2056     O2554   2.446       .  S
Zr2056     O2562   2.346       .  S
Zr2056     O2068   2.344   1_556  S
O2057     Zr3063   2.335       .  S
O2058     Zr3060   2.335       .  S
O2058     Zr3566   2.335       .  S
O2058     Zr2560   2.339       .  S
C2059      C2488   1.481       .  S
C2060      C2497   1.500       .  S
C2061      C2437   1.482       .  S
C2062      C2428   1.473       .  S
C2063      C2464   1.471       .  S
C2064      C2449   1.467       .  S
C2065      C2401   1.479       .  S
C2066      C2377   1.479       .  S
H2067      O2068   0.965       .  S
O2068     Zr3061   2.336       .  S
O2068     Zr3062   2.338   1_554  S
H2069      O2070   0.965       .  S
O2070     Zr3567   2.341       .  S
O2071     Zr2107   2.432       .  S
O2071      C2082   1.291       .  A
O2072     Zr2106   2.448       .  S
O2072      C2083   1.294       .  A
O2073     Zr2079   2.433       .  S
O2073      C2084   1.292       .  A
O2074      C2085   1.290       .  A
O2075     Zr2109   2.421       .  S
O2075      C2085   1.289       .  A
O2076     Zr2108   2.427       .  S
O2076      C2084   1.289       .  A
O2077     Zr2079   2.445       .  S
O2077      C2083   1.294       .  A
O2078     Zr2079   2.449       .  S
O2078      C2082   1.295       .  A
Zr2079     O2081   2.338       .  S
Zr2079     O2087   2.342       .  S
O2080     Zr2109   2.339       .  S
O2081     Zr2107   2.334       .  S
O2081     Zr2108   2.336       .  S
C2082      C2512   1.484       .  S
C2083      C2473   1.483       .  S
C2084      C2305   1.487       .  S
C2085      C2281   1.466       .  S
H2086      O2087   0.968       .  S
O2087     Zr2106   2.342       .  S
O2087     Zr2108   2.340       .  S
H2088      O2089   0.965       .  S
O2089     Zr2109   2.338       .  S
O2090     Zr2106   2.457       .  S
O2090      C2113   1.296       .  A
O2091     Zr2107   2.431       .  S
O2091      C2114   1.288       .  A
O2092     Zr2108   2.426       .  S
O2092      C2115   1.289       .  A
O2093     Zr2109   2.435       .  S
O2093      C2116   1.291       .  A
O2094     Zr2109   2.438       .  S
O2094      C2117   1.292       .  A
O2095     Zr2108   2.437       .  S
O2095      C2118   1.291       .  A
O2096     Zr2110   2.420       .  S
O2096      C2119   1.288       .  A
O2097      C2120   1.292       .  A
O2098     Zr2108   2.440       .  S
O2098      C2119   1.293       .  A
O2099     Zr2109   2.430       .  S
O2099      C2120   1.290       .  A
O2100     Zr2106   2.429       .  S
O2100      C2115   1.292       .  A
O2101     Zr2107   2.444       .  S
O2101      C2118   1.292       .  A
O2102      C2117   1.293       .  A
O2103      C2116   1.290       .  A
O2104     Zr2110   2.441       .  S
O2104      C2113   1.293       .  A
O2105     Zr2110   2.457       .  S
O2105      C2114   1.297       .  A
Zr2106     O2112   2.342       .  S
Zr2107     O2122   2.337       .  S
Zr2108     O2112   2.338       .  S
Zr2108     O2122   2.333       .  S
Zr2109     O2111   2.339       .  S
Zr2109     O2124   2.337       .  S
Zr2110     O2112   2.340       .  S
Zr2110     O2122   2.337       .  S
C2113      C2485   1.484       .  S
C2114      C2500   1.502       .  S
C2115      C2356   1.477       .  S
C2116      C2368   1.470       .  S
C2117      C2329   1.482       .  S
C2118      C2341   1.469       .  S
C2119      C2317   1.478       .  S
C2120      C2293   1.472       .  S
H2121      O2122   0.964       .  S
H2123      O2124   0.964       .  S
O2125     Zr2161   2.443       .  S
O2125      C2136   1.294       .  A
O2126     Zr2160   2.441       .  S
O2126      C2137   1.293       .  A
O2127     Zr2133   2.440       .  S
O2127      C2138   1.292       .  A
O2128     Zr3141   2.436       .  S
O2128      C2139   1.293       .  A
O2129     Zr2163   2.451       .  S
O2129      C2139   1.294       .  A
O2130     Zr2162   2.439       .  S
O2130      C2138   1.292       .  A
O2131     Zr2133   2.427       .  S
O2131      C2137   1.290       .  A
O2132     Zr2133   2.418       .  S
O2132      C2136   1.288       .  A
Zr2133     O3136   2.451       .  S
Zr2133     O3142   2.340       .  S
Zr2133     O2135   2.337       .  S
Zr2133     O3151   2.341       .  S
Zr2133     O2141   2.339       .  S
O2134     Zr3141   2.342       .  S
O2134     Zr3168   2.336   1_545  S
O2134     Zr2163   2.342       .  S
O2135     Zr2161   2.340       .  S
O2135     Zr2162   2.332       .  S
C2136      C3469   1.485       .  S
C2137      C3460   1.473       .  S
C2138      C2245   1.482       .  S
C2139      C2233   1.492       .  S
H2140      O2141   0.966       .  S
O2141     Zr2160   2.342       .  S
O2141     Zr2162   2.337       .  S
H2142      O2143   0.966       .  S
O2143     Zr3141   2.337       .  S
O2143     Zr3169   2.337       .  S
O2143     Zr2163   2.342       .  S
O2144     Zr2160   2.444       .  S
O2144      C2167   1.293       .  A
O2145     Zr2161   2.449       .  S
O2145      C2168   1.295       .  A
O2146     Zr2162   2.427       .  S
O2146      C2169   1.290       .  A
O2147     Zr2163   2.424       .  S
O2147      C2170   1.291       .  A
O2148     Zr2163   2.431       .  S
O2148      C2171   1.291       .  A
O2149     Zr2162   2.425       .  S
O2149      C2172   1.289       .  A
O2150     Zr2164   2.456       .  S
O2150      C2173   1.295       .  A
O2151     Zr3172   2.442   1_545  S
O2151      C2174   1.293       .  A
O2152     Zr2162   2.429       .  S
O2152      C2173   1.291       .  A
O2153     Zr2163   2.465       .  S
O2153      C2174   1.297       .  A
O2154     Zr2160   2.432       .  S
O2154      C2169   1.292       .  A
O2155     Zr2161   2.452       .  S
O2155      C2172   1.295       .  A
O2156     Zr3169   2.432       .  S
O2156      C2171   1.291       .  A
O2157     Zr3168   2.436   1_545  S
O2157      C2170   1.291       .  A
O2158     Zr2164   2.418       .  S
O2158      C2167   1.289       .  A
O2159     Zr2164   2.417       .  S
O2159      C2168   1.288       .  A
Zr2160     O3165   2.426       .  S
Zr2160     O3142   2.341       .  S
Zr2160     O2166   2.330       .  S
Zr2160     O3186   2.344       .  S
Zr2161     O3164   2.450       .  S
Zr2161     O3151   2.348       .  S
Zr2161     O3173   2.337       .  S
Zr2161     O2176   2.344       .  S
Zr2162     O2166   2.333       .  S
Zr2162     O2176   2.341       .  S
Zr2163     O2165   2.337       .  S
Zr2163     O2178   2.339       .  S
Zr2164     O3159   2.452       .  S
Zr2164     O3173   2.338       .  S
Zr2164     O2166   2.333       .  S
Zr2164     O3186   2.335       .  S
Zr2164     O2176   2.340       .  S
O2165     Zr3169   2.342       .  S
O2165     Zr3172   2.342   1_545  S
C2167      C3448   1.472       .  S
C2168      C3433   1.475       .  S
C2169      C2320   1.477       .  S
C2170      C2308   1.488       .  S
C2171      C2284   1.469       .  S
C2172      C2296   1.476       .  S
C2173      C2260   1.485       .  S
C2174      C2269   1.495       .  S
H2175      O2176   0.967       .  S
H2177      O2178   0.965       .  S
O2178     Zr3168   2.343   1_545  S
O2178     Zr3172   2.338   1_545  S
O2179     Zr2215   2.435       .  S
O2179      C2190   1.291       .  A
O2180     Zr2214   2.422       .  S
O2180      C2191   1.289       .  A
O2181     Zr2691   2.449   1_554  S
O2181      C2192   1.293       .  A
O2182     Zr2187   2.428       .  S
O2182      C2193   1.290       .  A
O2183     Zr2217   2.424       .  S
O2183      C2193   1.290       .  A
O2184     Zr2216   2.438       .  S
O2184      C2192   1.291       .  A
O2185     Zr2187   2.439       .  S
O2185      C2191   1.293       .  A
O2186     Zr2187   2.440       .  S
O2186      C2190   1.293       .  A
Zr2187     O2685   2.437       .  S
Zr2187     O2188   2.336       .  S
Zr2187     O2693   2.333       .  S
Zr2187     O2197   2.339       .  S
Zr2187     O2699   2.340       .  S
O2188     Zr2214   2.335       .  S
O2188     Zr2217   2.334       .  S
O2189     Zr2691   2.336   1_554  S
O2189     Zr2719   2.339   1_554  S
O2189     Zr2216   2.334       .  S
C2190      C2920   1.477       .  S
C2191      C2908   1.474       .  S
C2192      C2344   1.472       .  S
C2193      C2353   1.477       .  S
H2194      O2195   0.967       .  S
O2195     Zr2691   2.338   1_554  S
O2195     Zr2718   2.344   1_554  S
O2195     Zr2216   2.340       .  S
H2196      O2197   0.975       .  S
O2197     Zr2215   2.335       .  S
O2197     Zr2217   2.340       .  S
O2198     Zr2214   2.437       .  S
O2198      C2221   1.292       .  A
O2199     Zr2215   2.430       .  S
O2199      C2222   1.290       .  A
O2200     Zr2216   2.442       .  S
O2200      C2223   1.293       .  A
O2201     Zr2217   2.452       .  S
O2201      C2224   1.295       .  A
O2202     Zr2217   2.457       .  S
O2202      C2225   1.296       .  A
O2203     Zr2216   2.444       .  S
O2203      C2226   1.294       .  A
O2204     Zr2722   2.430       .  S
O2204      C2227   1.292       .  A
O2205     Zr2218   2.437       .  S
O2205      C2228   1.292       .  A
O2206     Zr2216   2.429       .  S
O2206      C2227   1.291       .  A
O2207     Zr2217   2.429       .  S
O2207      C2228   1.291       .  A
O2208     Zr2718   2.443   1_554  S
O2208      C2223   1.293       .  A
O2209     Zr2719   2.424   1_554  S
O2209      C2226   1.288       .  A
O2210     Zr2215   2.442       .  S
O2210      C2225   1.293       .  A
O2211     Zr2214   2.452       .  S
O2211      C2224   1.294       .  A
O2212     Zr2218   2.417       .  S
O2212      C2221   1.289       .  A
O2213     Zr2218   2.443       .  S
O2213      C2222   1.293       .  A
Zr2214     O2712   2.440       .  S
Zr2214     O2699   2.348       .  S
Zr2214     O2724   2.345       .  S
Zr2214     O2232   2.337       .  S
Zr2215     O2713   2.428       .  S
Zr2215     O2693   2.338       .  S
Zr2215     O2219   2.336       .  S
Zr2215     O2734   2.345       .  S
Zr2216     O2220   2.345       .  S
Zr2216     O2230   2.344       .  S
Zr2217     O2219   2.338       .  S
Zr2217     O2232   2.341       .  S
Zr2218     O2708   2.450       .  S
Zr2218     O2219   2.339       .  S
Zr2218     O2724   2.344       .  S
Zr2218     O2232   2.349       .  S
Zr2218     O2734   2.336       .  S
O2220     Zr2718   2.337   1_554  S
O2220     Zr2722   2.344       .  S
C2221      C2884   1.471       .  S
C2222      C2896   1.474       .  S
C2223      C2248   1.484       .  S
C2224      C2257   1.489       .  S
C2225      C2272   1.494       .  S
C2226      C2236   1.486       .  S
C2227      C2332   1.473       .  S
C2228      C2365   1.470       .  S
H2229      O2230   0.963       .  S
O2230     Zr2719   2.333   1_554  S
O2230     Zr2722   2.339       .  S
H2231      O2232   0.963       .  S
C2233      C2234   1.404       .  A
C2233      C2238   1.415       .  A
C2234      C2235   1.397       .  A
C2234      H2243   1.080       .  S
C2235      C2236   1.418       .  A
C2235      S2239   1.805       .  S
C2236      C2237   1.403       .  A
C2237      C2238   1.399       .  A
C2237      H2244   1.084       .  S
C2238      S2240   1.793       .  S
S2239      H2242   1.408       .  S
S2240      H2241   1.409       .  S
C2245      C2246   1.404       .  A
C2245      C2250   1.415       .  A
C2246      C2247   1.398       .  A
C2246      H2255   1.084       .  S
C2247      C2248   1.415       .  A
C2247      S2251   1.803       .  S
C2248      C2249   1.406       .  A
C2249      C2250   1.401       .  A
C2249      H2256   1.084       .  S
C2250      S2252   1.804       .  S
S2251      H2254   1.407       .  S
S2252      H2253   1.407       .  S
C2257      C2258   1.408       .  A
C2257      C2262   1.415       .  A
C2258      C2259   1.406       .  A
C2258      H2267   1.083       .  S
C2259      C2260   1.415       .  A
C2259      S2263   1.805       .  S
C2260      C2261   1.404       .  A
C2261      C2262   1.400       .  A
C2261      H2268   1.084       .  S
C2262      S2264   1.803       .  S
S2263      H2266   1.405       .  S
S2264      H2265   1.407       .  S
C2269      C2270   1.408       .  A
C2269      C2274   1.415       .  A
C2270      C2271   1.406       .  A
C2270      H2279   1.084       .  S
C2271      C2272   1.420       .  A
C2271      S2275   1.805       .  S
C2272      C2273   1.406       .  A
C2273      C2274   1.404       .  A
C2273      H2280   1.084       .  S
C2274      S2276   1.804       .  S
S2275      H2278   1.407       .  S
S2276      H2277   1.408       .  S
C2281      C2282   1.403       .  A
C2281      C2286   1.412       .  A
C2282      C2283   1.395       .  A
C2282      H2291   1.084       .  S
C2283      C2284   1.413       .  A
C2283      S2287   1.805       .  S
C2284      C2285   1.403       .  A
C2285      C2286   1.395       .  A
C2285      H2292   1.084       .  S
C2286      S2288   1.806       .  S
S2287      H2290   1.407       .  S
S2288      H2289   1.406       .  S
C2293      C2294   1.399       .  A
C2293      C2298   1.415       .  A
C2294      C2295   1.393       .  A
C2294      H2303   1.085       .  S
C2295      C2296   1.410       .  A
C2295      S2299   1.790       .  S
C2296      C2297   1.405       .  A
C2297      C2298   1.402       .  A
C2297      H2304   1.084       .  S
C2298      S2300   1.805       .  S
S2299      H2302   1.407       .  S
S2300      H2301   1.406       .  S
C2305      C2306   1.407       .  A
C2305      C2310   1.417       .  A
C2306      C2307   1.397       .  A
C2306      H2315   1.082       .  S
C2307      C2308   1.416       .  A
C2307      S2311   1.804       .  S
C2308      C2309   1.405       .  A
C2309      C2310   1.394       .  A
C2309      H2316   1.079       .  S
C2310      S2312   1.805       .  S
S2311      H2314   1.408       .  S
S2312      H2313   1.407       .  S
C2317      C2318   1.403       .  A
C2317      C2322   1.417       .  A
C2318      C2319   1.397       .  A
C2318      H2327   1.084       .  S
C2319      C2320   1.415       .  A
C2319      S2323   1.803       .  S
C2320      C2321   1.401       .  A
C2321      C2322   1.394       .  A
C2321      H2328   1.084       .  S
C2322      S2324   1.801       .  S
S2323      H2326   1.407       .  S
S2324      H2325   1.407       .  S
C2329      C2330   1.406       .  A
C2329      C2334   1.415       .  A
C2330      C2331   1.400       .  A
C2330      H2339   1.084       .  S
C2331      C2332   1.414       .  A
C2331      S2335   1.805       .  S
C2332      C2333   1.401       .  A
C2333      C2334   1.395       .  A
C2333      H2340   1.085       .  S
C2334      S2336   1.798       .  S
S2335      H2338   1.407       .  S
S2336      H2337   1.406       .  S
C2341      C2342   1.403       .  A
C2341      C2346   1.410       .  A
C2342      C2343   1.402       .  A
C2342      H2351   1.084       .  S
C2343      C2344   1.413       .  A
C2343      S2347   1.806       .  S
C2344      C2345   1.402       .  A
C2345      C2346   1.399       .  A
C2345      H2352   1.081       .  S
C2346      S2348   1.805       .  S
S2347      H2350   1.405       .  S
S2348      H2349   1.405       .  S
C2353      C2354   1.405       .  A
C2353      C2358   1.414       .  A
C2354      C2355   1.399       .  A
C2354      H2363   1.083       .  S
C2355      C2356   1.415       .  A
C2355      S2359   1.810       .  S
C2356      C2357   1.404       .  A
C2357      C2358   1.397       .  A
C2357      H2364   1.083       .  S
C2358      S2360   1.811       .  S
S2359      H2362   1.407       .  S
S2360      H2361   1.407       .  S
C2365      C2366   1.404       .  A
C2365      C2370   1.412       .  A
C2366      C2367   1.396       .  A
C2366      H2375   1.084       .  S
C2367      C2368   1.412       .  A
C2367      S2371   1.804       .  S
C2368      C2369   1.404       .  A
C2369      C2370   1.396       .  A
C2369      H2376   1.084       .  S
C2370      S2372   1.804       .  S
S2371      H2374   1.405       .  S
S2372      H2373   1.406       .  S
C2377      C2882   1.403   1_554  A
C2377      C2382   1.416       .  A
C2378      C2881   1.404       .  A
C2378      C2379   1.396       .  A
C2378      H2387   1.084       .  S
C2379      C2884   1.413       .  A
C2379      S2383   1.805       .  S
C2380      C2725   1.478       .  S
C2380      C2883   1.415   1_554  A
C2380      C2381   1.404       .  A
C2381      C2382   1.400       .  A
C2381      H2388   1.084       .  S
C2382      S2384   1.803       .  S
S2383      H2386   1.406       .  S
S2384      H2385   1.407       .  S
C2389      C2390   1.404   1_556  A
C2389      C2898   1.414       .  A
C2390      C2391   1.396       .  A
C2390      H2399   1.084       .  S
C2391      C2392   1.413       .  A
C2391      S2395   1.804       .  S
C2392      C2726   1.477       .  S
C2392      C2897   1.406   1_554  A
C2393      C2896   1.405       .  A
C2393      C2394   1.402       .  A
C2393      H2400   1.084       .  S
C2394      C2893   1.415       .  A
C2394      S2396   1.807       .  S
S2395      H2398   1.407       .  S
S2396      H2397   1.402       .  S
C2401      C2402   1.404   1_556  A
C2401      C2910   1.416       .  A
C2402      C2403   1.393       .  A
C2402      H2411   1.084       .  S
C2403      C2404   1.412   1_554  A
C2403      S2407   1.802       .  S
C2404      C2695   1.478       .  S
C2404      C2909   1.406       .  A
C2405      C2908   1.406       .  A
C2405      C2406   1.399       .  A
C2405      H2412   1.084       .  S
C2406      C2905   1.413       .  A
C2406      S2408   1.803       .  S
S2407      H2410   1.407       .  S
S2408      H2409   1.406       .  S
C2413      C2918   1.402   1_554  A
C2413      C2418   1.415       .  A
C2414      C2917   1.402       .  A
C2414      C2415   1.399       .  A
C2414      H2423   1.084       .  S
C2415      C2920   1.414       .  A
C2415      S2419   1.805       .  S
C2416      C2694   1.469       .  S
C2416      C2919   1.411       .  A
C2416      C2417   1.404   1_556  A
C2417      C2418   1.396       .  A
C2417      H2424   1.084       .  S
C2418      S2420   1.804       .  S
S2419      H2422   1.407       .  S
S2420      H2421   1.405       .  S
C2425      C3176   1.471       .  S
C2425      C2426   1.402   1_565  A
C2425      C3438   1.414       .  A
C2426      C2427   1.396       .  A
C2426      H2435   1.084       .  S
C2427      C2428   1.415       .  A
C2427      S2431   1.804       .  S
C2428      C3437   1.403   1_545  A
C2429      C3436   1.404       .  A
C2429      C2430   1.399       .  A
C2429      H2436   1.084       .  S
C2430      C3433   1.417       .  A
C2430      S2432   1.806       .  S
S2431      H2434   1.406       .  S
S2432      H2433   1.407       .  S
C2437      C3446   1.407       .  A
C2437      C2442   1.414   1_565  A
C2438      C3445   1.405       .  A
C2438      C2439   1.398       .  A
C2438      H2447   1.084       .  S
C2439      C3448   1.413       .  A
C2439      S2443   1.806       .  S
C2440      C3175   1.478       .  S
C2440      C3447   1.415       .  A
C2440      C2441   1.403   1_565  A
C2441      C2442   1.399       .  A
C2441      H2448   1.084       .  S
C2442      S2444   1.804       .  S
S2443      H2446   1.405       .  S
S2444      H2445   1.407       .  S
C2449      C3458   1.404   1_545  A
C2449      C2454   1.413       .  A
C2450      C3457   1.404       .  A
C2450      C2451   1.398       .  A
C2450      H2459   1.084       .  S
C2451      C3460   1.416       .  A
C2451      S2455   1.806       .  S
C2452      C3145   1.465       .  S
C2452      C3459   1.413       .  A
C2452      C2453   1.400   1_565  A
C2453      C2454   1.394       .  A
C2453      H2460   1.084       .  S
C2454      S2456   1.806       .  S
S2455      H2458   1.407       .  S
S2456      H2457   1.405       .  S
C2461      C3144   1.479       .  S
C2461      C3470   1.402   1_545  A
C2461      C2466   1.414       .  A
C2462      C3469   1.400       .  A
C2462      C2463   1.395       .  A
C2462      H2471   1.078       .  S
C2463      C3472   1.415       .  A
C2463      S2467   1.799       .  S
C2464      C3471   1.414   1_545  A
C2464      C2465   1.402       .  A
C2465      C2466   1.397       .  A
C2465      H2472   1.085       .  S
C2466      S2468   1.795       .  S
S2467      H2470   1.408       .  S
S2468      H2469   1.407       .  S
C2473      C2478   1.414       .  A
C2474      C2475   1.402       .  A
C2474      H2483   1.084       .  S
C2475      S2479   1.804       .  S
C2476      C2477   1.403       .  A
C2477      C2478   1.400       .  A
C2477      H2484   1.084       .  S
C2478      S2480   1.800       .  S
S2479      H2482   1.402       .  S
S2480      H2481   1.407       .  S
C2485      C2486   1.406       .  A
C2486      C2487   1.403       .  A
C2486      H2495   1.084       .  S
C2487      C2488   1.414       .  A
C2487      S2491   1.805       .  S
C2489      C2490   1.401       .  A
C2489      H2496   1.084       .  S
C2490      S2492   1.804       .  S
S2491      H2494   1.406       .  S
S2492      H2493   1.407       .  S
C2497      C2498   1.406       .  A
C2498      C2499   1.400       .  A
C2498      H2507   1.083       .  S
C2499      C2500   1.423       .  A
C2499      S2503   1.804       .  S
C2501      C2502   1.404       .  A
C2501      H2508   1.080       .  S
C2502      S2504   1.811       .  S
S2503      H2506   1.406       .  S
S2504      H2505   1.405       .  S
C2509      C2514   1.414       .  A
C2510      C2511   1.402       .  A
C2510      H2519   1.083       .  S
C2511      S2515   1.808       .  S
C2512      C2513   1.404       .  A
C2513      C2514   1.404       .  A
C2513      H2520   1.083       .  S
C2514      S2516   1.809       .  S
S2515      H2518   1.406       .  S
S2516      H2517   1.407       .  S
O2521     Zr2557   2.425       .  S
O2521      C2532   1.289       .  A
O2522     Zr2556   2.453       .  S
O2522      C2533   1.295       .  A
O2523     Zr2529   2.448       .  S
O2523      C2534   1.294       .  A
O2524      C2535   1.291       .  A
O2525     Zr2559   2.448   1_545  S
O2525      C2535   1.294       .  A
O2526     Zr2558   2.433       .  S
O2526      C2534   1.291       .  A
O2527      C2533   1.292       .  A
O2528     Zr2529   2.451       .  S
O2528      C2532   1.295       .  A
Zr2529     O2531   2.335       .  S
O2531     Zr2557   2.338       .  S
O2531     Zr2558   2.341       .  S
C2532      C3013   1.483       .  S
C2533      C2980   1.483       .  S
C2534      C2917   1.478       .  S
C2535      C2893   1.475       .  S
H2536      O2537   0.966       .  S
O2537     Zr2556   2.342       .  S
H2538      O2539   0.965       .  S
O2539     Zr2559   2.348   1_545  S
O2540     Zr3564   2.452       .  S
O2540      C2563   1.295       .  A
O2541     Zr3565   2.433       .  S
O2541      C2564   1.290       .  A
O2542      C2565   1.291       .  A
O2543      C2566   1.295       .  A
O2544     Zr2559   2.433       .  S
O2544      C2567   1.292       .  A
O2545     Zr2558   2.444       .  S
O2545      C2568   1.294       .  A
O2546     Zr2560   2.423       .  S
O2546      C2569   1.290       .  A
O2547      C2570   1.291       .  A
O2548     Zr3566   2.436       .  S
O2548      C2569   1.292       .  A
O2549     Zr3567   2.432       .  S
O2549      C2570   1.291       .  A
O2550     Zr2556   2.436       .  S
O2550      C2565   1.291       .  A
O2551     Zr2557   2.430       .  S
O2551      C2568   1.290       .  A
O2552      C2567   1.289       .  A
O2553      C2566   1.292       .  A
O2554      C2563   1.294       .  A
O2555     Zr2560   2.462       .  S
O2555      C2564   1.298       .  A
Zr2556     O3548   2.444   1_545  S
Zr2556     O3570   2.336   1_545  S
Zr2557     O3549   2.427   1_545  S
Zr2557     O3580   2.339   1_545  S
Zr2558     O3556   2.428   1_545  S
Zr2558     O3066   2.336   1_545  S
Zr2558     O3580   2.343   1_545  S
Zr2559     O3557   2.443       .  S
Zr2559     O3569   2.340       .  S
Zr2559     O3078   2.342       .  S
Zr2560     O2572   2.345       .  S
O2561     Zr3567   2.333       .  S
O2562     Zr3564   2.335       .  S
O2562     Zr3062   2.342       .  S
C2563      C2992   1.486       .  S
C2564      C3001   1.501       .  S
C2565      C2941   1.473       .  S
C2566      C2932   1.483       .  S
C2567      C2968   1.466       .  S
C2568      C2953   1.481       .  S
C2569      C2905   1.472       .  S
C2570      C2881   1.472       .  S
H2571      O2572   0.964       .  S
O2572     Zr3565   2.344       .  S
O2572     Zr3566   2.340       .  S
H2573      O2574   0.965       .  S
O2574     Zr3063   2.334   1_556  S
O2575     Zr2611   2.435       .  S
O2575      C2586   1.291       .  A
O2576     Zr2610   2.438       .  S
O2576      C2587   1.293       .  A
O2577     Zr2583   2.428       .  S
O2577      C2588   1.291       .  A
O2578      C2589   1.291       .  A
O2579     Zr2613   2.436       .  S
O2579      C2589   1.292       .  A
O2580     Zr2612   2.429       .  S
O2580      C2588   1.289       .  A
O2581     Zr2583   2.452       .  S
O2581      C2587   1.295       .  A
O2582     Zr2583   2.451       .  S
O2582      C2586   1.295       .  A
Zr2583     O2585   2.340       .  S
Zr2583     O2591   2.344       .  S
O2584     Zr2613   2.329       .  S
O2585     Zr2611   2.340       .  S
O2585     Zr2612   2.340       .  S
C2586      C3016   1.486       .  S
C2587      C2977   1.483       .  S
C2588      C2809   1.485       .  S
C2589      C2785   1.476       .  S
H2590      O2591   0.966       .  S
O2591     Zr2610   2.347       .  S
O2591     Zr2612   2.336       .  S
H2592      O2593   0.965       .  S
O2593     Zr2613   2.337       .  S
O2594     Zr2610   2.453       .  S
O2594      C2617   1.295       .  A
O2595     Zr2611   2.426       .  S
O2595      C2618   1.287       .  A
O2596     Zr2612   2.439       .  S
O2596      C2619   1.292       .  A
O2597     Zr2613   2.428       .  S
O2597      C2620   1.290       .  A
O2598     Zr2613   2.435       .  S
O2598      C2621   1.292       .  A
O2599     Zr2612   2.441       .  S
O2599      C2622   1.292       .  A
O2600     Zr2614   2.435       .  S
O2600      C2623   1.292       .  A
O2601      C2624   1.291       .  A
O2602     Zr2612   2.432       .  S
O2602      C2623   1.291       .  A
O2603     Zr2613   2.415       .  S
O2603      C2624   1.288       .  A
O2604     Zr2610   2.430       .  S
O2604      C2619   1.291       .  A
O2605     Zr2611   2.440       .  S
O2605      C2622   1.291       .  A
O2606      C2621   1.291       .  A
O2607      C2620   1.290       .  A
O2608     Zr2614   2.443       .  S
O2608      C2617   1.293       .  A
O2609     Zr2614   2.453       .  S
O2609      C2618   1.296       .  A
Zr2610     O2616   2.339       .  S
Zr2611     O2626   2.340       .  S
Zr2612     O2616   2.340       .  S
Zr2612     O2626   2.337       .  S
Zr2613     O2615   2.336       .  S
Zr2613     O2628   2.343       .  S
Zr2614     O2616   2.341       .  S
Zr2614     O2626   2.337       .  S
C2617      C2989   1.485       .  S
C2618      C3004   1.500       .  S
C2619      C2860   1.478       .  S
C2620      C2872   1.469       .  S
C2621      C2833   1.474       .  S
C2622      C2845   1.467       .  S
C2623      C2821   1.475       .  S
C2624      C2797   1.460       .  S
H2625      O2626   0.965       .  S
H2627      O2628   0.964       .  S
O2629     Zr2665   2.431       .  S
O2629      C2640   1.292       .  A
O2630     Zr2664   2.452       .  S
O2630      C2641   1.295       .  A
O2631     Zr2637   2.426       .  S
O2631      C2642   1.290       .  A
O2632     Zr3645   2.449       .  S
O2632      C2643   1.295       .  A
O2633     Zr2667   2.441       .  S
O2633      C2643   1.291       .  A
O2634     Zr2666   2.448       .  S
O2634      C2642   1.294       .  A
O2635     Zr2637   2.427       .  S
O2635      C2641   1.290       .  A
O2636     Zr2637   2.428       .  S
O2636      C2640   1.290       .  A
Zr2637     O3640   2.450       .  S
Zr2637     O3646   2.337       .  S
Zr2637     O2639   2.343       .  S
Zr2637     O3655   2.332       .  S
Zr2637     O2645   2.338       .  S
O2638     Zr3645   2.335       .  S
O2638     Zr3672   2.342   1_545  S
O2638     Zr2667   2.340       .  S
O2639     Zr2665   2.338       .  S
O2639     Zr2666   2.340       .  S
C2640      C3973   1.482       .  S
C2641      C3964   1.479       .  S
C2642      C2749   1.473       .  S
C2643      C2737   1.498       .  S
H2644      O2645   0.966       .  S
O2645     Zr2664   2.332       .  S
O2645     Zr2666   2.333       .  S
H2646      O2647   0.966       .  S
O2647     Zr3645   2.343       .  S
O2647     Zr3673   2.352       .  S
O2647     Zr2667   2.344       .  S
O2648     Zr2664   2.436       .  S
O2648      C2671   1.292       .  A
O2649     Zr2665   2.444       .  S
O2649      C2672   1.293       .  A
O2650     Zr2666   2.425       .  S
O2650      C2673   1.289       .  A
O2651     Zr2667   2.425       .  S
O2651      C2674   1.291       .  A
O2652     Zr2667   2.419       .  S
O2652      C2675   1.289       .  A
O2653     Zr2666   2.418       .  S
O2653      C2676   1.288       .  A
O2654     Zr2668   2.442       .  S
O2654      C2677   1.293       .  A
O2655     Zr3676   2.456   1_545  S
O2655      C2678   1.295       .  A
O2656     Zr2666   2.439       .  S
O2656      C2677   1.292       .  A
O2657     Zr2667   2.443       .  S
O2657      C2678   1.292       .  A
O2658     Zr2664   2.434       .  S
O2658      C2673   1.292       .  A
O2659     Zr2665   2.446       .  S
O2659      C2676   1.294       .  A
O2660     Zr3673   2.450       .  S
O2660      C2675   1.294       .  A
O2661     Zr3672   2.430   1_545  S
O2661      C2674   1.290       .  A
O2662     Zr2668   2.427       .  S
O2662      C2671   1.290       .  A
O2663     Zr2668   2.436       .  S
O2663      C2672   1.292       .  A
Zr2664     O3669   2.430       .  S
Zr2664     O3646   2.338       .  S
Zr2664     O2670   2.342       .  S
Zr2664     O3690   2.343       .  S
Zr2665     O3668   2.427       .  S
Zr2665     O3655   2.344       .  S
Zr2665     O3677   2.341       .  S
Zr2665     O2680   2.336       .  S
Zr2666     O2670   2.340       .  S
Zr2666     O2680   2.341       .  S
Zr2667     O2669   2.336       .  S
Zr2667     O2682   2.340       .  S
Zr2668     O3663   2.448       .  S
Zr2668     O3677   2.336       .  S
Zr2668     O2670   2.344       .  S
Zr2668     O3690   2.340       .  S
Zr2668     O2680   2.338       .  S
O2669     Zr3673   2.340       .  S
O2669     Zr3676   2.331   1_545  S
C2671      C3952   1.468       .  S
C2672      C3937   1.476       .  S
C2673      C2824   1.473       .  S
C2674      C2812   1.484       .  S
C2675      C2788   1.475       .  S
C2676      C2800   1.466       .  S
C2677      C2764   1.482       .  S
C2678      C2773   1.488       .  S
H2679      O2680   0.967       .  S
H2681      O2682   0.965       .  S
O2682     Zr3672   2.353   1_545  S
O2682     Zr3676   2.340   1_545  S
O2683     Zr2719   2.411       .  S
O2683      C2694   1.288       .  A
O2684     Zr2718   2.420       .  S
O2684      C2695   1.289       .  A
O2685      C2696   1.291       .  A
O2686     Zr2691   2.431       .  S
O2686      C2697   1.291       .  A
O2687     Zr2721   2.436       .  S
O2687      C2697   1.292       .  A
O2688     Zr2720   2.438       .  S
O2688      C2696   1.291       .  A
O2689     Zr2691   2.446       .  S
O2689      C2695   1.294       .  A
O2690     Zr2691   2.441       .  S
O2690      C2694   1.293       .  A
Zr2691     O2692   2.337       .  S
Zr2691     O2701   2.346       .  S
O2692     Zr2718   2.339       .  S
O2692     Zr2721   2.341       .  S
O2693     Zr2720   2.339       .  S
C2696      C2848   1.467       .  S
C2697      C2857   1.478       .  S
H2698      O2699   0.968       .  S
O2699     Zr2720   2.343       .  S
H2700      O2701   0.980       .  S
O2701     Zr2719   2.337       .  S
O2701     Zr2721   2.333       .  S
O2702     Zr2718   2.431   1_554  S
O2702      C2725   1.291       .  A
O2703     Zr2719   2.426   1_554  S
O2703      C2726   1.290       .  A
O2704     Zr2720   2.456       .  S
O2704      C2727   1.295       .  A
O2705     Zr2721   2.434       .  S
O2705      C2728   1.291       .  A
O2706     Zr2721   2.454       .  S
O2706      C2729   1.295       .  A
O2707     Zr2720   2.454       .  S
O2707      C2730   1.296       .  A
O2708      C2731   1.294       .  A
O2709     Zr2722   2.444   1_556  S
O2709      C2732   1.293       .  A
O2710     Zr2720   2.430       .  S
O2710      C2731   1.291       .  A
O2711     Zr2721   2.419       .  S
O2711      C2732   1.289       .  A
O2712      C2727   1.292       .  A
O2713      C2730   1.289       .  A
O2714     Zr2719   2.436       .  S
O2714      C2729   1.291       .  A
O2715     Zr2718   2.444       .  S
O2715      C2728   1.294       .  A
O2716     Zr2722   2.442       .  S
O2716      C2725   1.293       .  A
O2717     Zr2722   2.443       .  S
O2717      C2726   1.293       .  A
Zr2718     O2736   2.335       .  S
Zr2719     O2723   2.333       .  S
Zr2720     O2724   2.345       .  S
Zr2720     O2734   2.348       .  S
Zr2721     O2723   2.337       .  S
Zr2721     O2736   2.342       .  S
Zr2722     O2723   2.339   1_554  S
Zr2722     O2736   2.333   1_554  S
C2727      C2752   1.480       .  S
C2728      C2761   1.480       .  S
C2729      C2776   1.487       .  S
C2730      C2740   1.493       .  S
C2731      C2836   1.475       .  S
C2732      C2869   1.471       .  S
H2733      O2734   0.963       .  S
H2735      O2736   0.961       .  S
C2737      C2738   1.405       .  A
C2737      C2742   1.420       .  A
C2738      C2739   1.398       .  A
C2738      H2747   1.082       .  S
C2739      C2740   1.420       .  A
C2739      S2743   1.804       .  S
C2740      C2741   1.405       .  A
C2741      C2742   1.402       .  A
C2741      H2748   1.084       .  S
C2742      S2744   1.797       .  S
S2743      H2746   1.408       .  S
S2744      H2745   1.407       .  S
C2749      C2750   1.402       .  A
C2749      C2754   1.415       .  A
C2750      C2751   1.400       .  A
C2750      H2759   1.084       .  S
C2751      C2752   1.414       .  A
C2751      S2755   1.802       .  S
C2752      C2753   1.404       .  A
C2753      C2754   1.401       .  A
C2753      H2760   1.084       .  S
C2754      S2756   1.807       .  S
S2755      H2758   1.407       .  S
S2756      H2757   1.403       .  S
C2761      C2762   1.402       .  A
C2761      C2766   1.416       .  A
C2762      C2763   1.397       .  A
C2762      H2771   1.084       .  S
C2763      C2764   1.415       .  A
C2763      S2767   1.804       .  S
C2764      C2765   1.406       .  A
C2765      C2766   1.402       .  A
C2765      H2772   1.084       .  S
C2766      S2768   1.805       .  S
S2767      H2770   1.407       .  S
S2768      H2769   1.407       .  S
C2773      C2774   1.404       .  A
C2773      C2778   1.418       .  A
C2774      C2775   1.402       .  A
C2774      H2783   1.084       .  S
C2775      C2776   1.417       .  A
C2775      S2779   1.805       .  S
C2776      C2777   1.405       .  A
C2777      C2778   1.404       .  A
C2777      H2784   1.084       .  S
C2778      S2780   1.804       .  S
S2779      H2782   1.407       .  S
S2780      H2781   1.406       .  S
C2785      C2786   1.402       .  A
C2785      C2790   1.415       .  A
C2786      C2787   1.395       .  A
C2786      H2795   1.084       .  S
C2787      C2788   1.414       .  A
C2787      S2791   1.804       .  S
C2788      C2789   1.405       .  A
C2789      C2790   1.401       .  A
C2789      H2796   1.084       .  S
C2790      S2792   1.805       .  S
S2791      H2794   1.407       .  S
S2792      H2793   1.406       .  S
C2797      C2798   1.399       .  A
C2797      C2802   1.412       .  A
C2798      C2799   1.394       .  A
C2798      H2807   1.085       .  S
C2799      C2800   1.411       .  A
C2799      S2803   1.798       .  S
C2800      C2801   1.403       .  A
C2801      C2802   1.395       .  A
C2801      H2808   1.084       .  S
C2802      S2804   1.806       .  S
S2803      H2806   1.403       .  S
S2804      H2805   1.406       .  S
C2809      C2810   1.408       .  A
C2809      C2814   1.416       .  A
C2810      C2811   1.395       .  A
C2810      H2819   1.083       .  S
C2811      C2812   1.416       .  A
C2811      S2815   1.805       .  S
C2812      C2813   1.406       .  A
C2813      C2814   1.393       .  A
C2813      H2820   1.081       .  S
C2814      S2816   1.804       .  S
S2815      H2818   1.408       .  S
S2816      H2817   1.407       .  S
C2821      C2822   1.404       .  A
C2821      C2826   1.414       .  A
C2822      C2823   1.398       .  A
C2822      H2831   1.084       .  S
C2823      C2824   1.414       .  A
C2823      S2827   1.804       .  S
C2824      C2825   1.402       .  A
C2825      C2826   1.395       .  A
C2825      H2832   1.084       .  S
C2826      S2828   1.802       .  S
S2827      H2830   1.407       .  S
S2828      H2829   1.405       .  S
C2833      C2834   1.401       .  A
C2833      C2838   1.415       .  A
C2834      C2835   1.397       .  A
C2834      H2843   1.084       .  S
C2835      C2836   1.415       .  A
C2835      S2839   1.805       .  S
C2836      C2837   1.404       .  A
C2837      C2838   1.401       .  A
C2837      H2844   1.084       .  S
C2838      S2840   1.804       .  S
S2839      H2842   1.405       .  S
S2840      H2841   1.406       .  S
C2845      C2846   1.403       .  A
C2845      C2850   1.411       .  A
C2846      C2847   1.401       .  A
C2846      H2855   1.084       .  S
C2847      C2848   1.411       .  A
C2847      S2851   1.805       .  S
C2848      C2849   1.399       .  A
C2849      C2850   1.396       .  A
C2849      H2856   1.079       .  S
C2850      S2852   1.805       .  S
S2851      H2854   1.406       .  S
S2852      H2853   1.403       .  S
C2857      C2858   1.404       .  A
C2857      C2862   1.414       .  A
C2858      C2859   1.402       .  A
C2858      H2867   1.083       .  S
C2859      C2860   1.413       .  A
C2859      S2863   1.809       .  S
C2860      C2861   1.404       .  A
C2861      C2862   1.400       .  A
C2861      H2868   1.083       .  S
C2862      S2864   1.810       .  S
S2863      H2866   1.407       .  S
S2864      H2865   1.406       .  S
C2869      C2870   1.403       .  A
C2869      C2874   1.413       .  A
C2870      C2871   1.394       .  A
C2870      H2879   1.084       .  S
C2871      C2872   1.412       .  A
C2871      S2875   1.804       .  S
C2872      C2873   1.403       .  A
C2873      C2874   1.397       .  A
C2873      H2880   1.084       .  S
C2874      S2876   1.804       .  S
S2875      H2878   1.406       .  S
S2876      H2877   1.406       .  S
C2881      C2886   1.413       .  A
C2882      C2883   1.397       .  A
C2882      H2891   1.084       .  S
C2883      S2887   1.804       .  S
C2884      C2885   1.404       .  A
C2885      C2886   1.395       .  A
C2885      H2892   1.084       .  S
C2886      S2888   1.803       .  S
S2887      H2890   1.407       .  S
S2888      H2889   1.407       .  S
C2893      C2894   1.404       .  A
C2894      C2895   1.397       .  A
C2894      H2903   1.084       .  S
C2895      C2896   1.411       .  A
C2895      S2899   1.805       .  S
C2897      C2898   1.399       .  A
C2897      H2904   1.084       .  S
C2898      S2900   1.805       .  S
S2899      H2902   1.406       .  S
S2900      H2901   1.407       .  S
C2905      C2906   1.402       .  A
C2906      C2907   1.391       .  A
C2906      H2915   1.084       .  S
C2907      C2908   1.412       .  A
C2907      S2911   1.799       .  S
C2909      C2910   1.401       .  A
C2909      H2916   1.084       .  S
C2910      S2912   1.804       .  S
S2911      H2914   1.406       .  S
S2912      H2913   1.407       .  S
C2917      C2922   1.416       .  A
C2918      C2919   1.395       .  A
C2918      H2927   1.084       .  S
C2919      S2923   1.804       .  S
C2920      C2921   1.404       .  A
C2921      C2922   1.401       .  A
C2921      H2928   1.084       .  S
C2922      S2924   1.805       .  S
S2923      H2926   1.408       .  S
S2924      H2925   1.406       .  S
C2929      C3680   1.479       .  S
C2929      C2930   1.404   1_565  A
C2929      C3942   1.413       .  A
C2930      C2931   1.401       .  A
C2930      H2939   1.084       .  S
C2931      C2932   1.418       .  A
C2931      S2935   1.804       .  S
C2932      C3941   1.404   1_545  A
C2933      C3940   1.402       .  A
C2933      C2934   1.399       .  A
C2933      H2940   1.084       .  S
C2934      C3937   1.415       .  A
C2934      S2936   1.805       .  S
S2935      H2938   1.403       .  S
S2936      H2937   1.406       .  S
C2941      C3950   1.404   1_545  A
C2941      C2946   1.412       .  A
C2942      C3949   1.402       .  A
C2942      C2943   1.393       .  A
C2942      H2951   1.084       .  S
C2943      C3952   1.411       .  A
C2943      S2947   1.805       .  S
C2944      C3679   1.472       .  S
C2944      C3951   1.415       .  A
C2944      C2945   1.402   1_565  A
C2945      C2946   1.397       .  A
C2945      H2952   1.084       .  S
C2946      S2948   1.805       .  S
S2947      H2950   1.406       .  S
S2948      H2949   1.406       .  S
C2953      C3962   1.404   1_545  A
C2953      C2958   1.416       .  A
C2954      C3961   1.406       .  A
C2954      C2955   1.401       .  A
C2954      H2963   1.084       .  S
C2955      C3964   1.416       .  A
C2955      S2959   1.805       .  S
C2956      C3649   1.484       .  S
C2956      C3963   1.416       .  A
C2956      C2957   1.405   1_565  A
C2957      C2958   1.401       .  A
C2957      H2964   1.084       .  S
C2958      S2960   1.805       .  S
S2959      H2962   1.407       .  S
S2960      H2961   1.407       .  S
C2965      C3648   1.471       .  S
C2965      C3974   1.401   1_545  A
C2965      C2970   1.410       .  A
C2966      C3973   1.402       .  A
C2966      C2967   1.394       .  A
C2966      H2975   1.081       .  S
C2967      C3976   1.413       .  A
C2967      S2971   1.799       .  S
C2968      C3975   1.412       .  A
C2968      C2969   1.400   1_565  A
C2969      C2970   1.394       .  A
C2969      H2976   1.084       .  S
C2970      S2972   1.799       .  S
S2971      H2974   1.408       .  S
S2972      H2973   1.407       .  S
C2977      C2982   1.414       .  A
C2978      C2979   1.402       .  A
C2978      H2987   1.084       .  S
C2979      S2983   1.806       .  S
C2980      C2981   1.405       .  A
C2981      C2982   1.401       .  A
C2981      H2988   1.084       .  S
C2982      S2984   1.801       .  S
S2983      H2986   1.403       .  S
S2984      H2985   1.407       .  S
C2989      C2990   1.404       .  A
C2990      C2991   1.403       .  A
C2990      H2999   1.084       .  S
C2991      C2992   1.416       .  A
C2991      S2995   1.804       .  S
C2993      C2994   1.404       .  A
C2993      H3000   1.084       .  S
C2994      S2996   1.804       .  S
S2995      H2998   1.407       .  S
S2996      H2997   1.407       .  S
C3001      C3002   1.406       .  A
C3002      C3003   1.400       .  A
C3002      H3011   1.083       .  S
C3003      C3004   1.423       .  A
C3003      S3007   1.803       .  S
C3005      C3006   1.400       .  A
C3005      H3012   1.081       .  S
C3006      S3008   1.811       .  S
S3007      H3010   1.407       .  S
S3008      H3009   1.407       .  S
C3013      C3018   1.416       .  A
C3014      C3015   1.404       .  A
C3014      H3023   1.083       .  S
C3015      S3019   1.806       .  S
C3016      C3017   1.405       .  A
C3017      C3018   1.405       .  A
C3017      H3024   1.083       .  S
C3018      S3020   1.811       .  S
S3019      H3022   1.408       .  S
S3020      H3021   1.407       .  S
O3025     Zr3061   2.443       .  S
O3025      C3036   1.293       .  A
O3026     Zr3060   2.451       .  S
O3026      C3037   1.294       .  A
O3027     Zr3033   2.435   1_554  S
O3027      C3038   1.292       .  A
O3028      C3039   1.291   1_554  A
O3029     Zr3063   2.426   1_556  S
O3029      C3039   1.290       .  A
O3030     Zr3062   2.435   1_554  S
O3030      C3038   1.291       .  A
O3031     Zr3537   2.437       .  S
O3031      C3037   1.292       .  A
O3032     Zr3033   2.448   1_554  S
O3032      C3036   1.294       .  A
Zr3033     O3535   2.444       .  S
Zr3033     O3035   2.337   1_556  S
Zr3033     O3545   2.345       .  S
O3034     Zr3567   2.339       .  S
O3035     Zr3061   2.330       .  S
O3035     Zr3062   2.335   1_554  S
C3036      C3517   1.485       .  S
C3037      C3484   1.480       .  S
C3038      C3421   1.478       .  S
C3039      C3397   1.469   1_556  S
H3040      O3041   0.966       .  S
O3041     Zr3537   2.343       .  S
O3041     Zr3060   2.338       .  S
O3041     Zr3566   2.342       .  S
H3042      O3043   0.964       .  S
O3043     Zr3063   2.347       .  S
O3044      C3067   1.293       .  A
O3045      C3068   1.288       .  A
O3046     Zr3566   2.443       .  S
O3046      C3069   1.293       .  A
O3047     Zr3567   2.421       .  S
O3047      C3070   1.289       .  A
O3048     Zr3063   2.440       .  S
O3048      C3071   1.294       .  A
O3049     Zr3062   2.422   1_554  S
O3049      C3072   1.289       .  A
O3050     Zr3064   2.428       .  S
O3050      C3073   1.291       .  A
O3051      C3074   1.292   1_554  A
O3052      C3073   1.288       .  A
O3053      C3074   1.296       .  A
O3054     Zr3060   2.419       .  S
O3054      C3069   1.288       .  A
O3055     Zr3061   2.435       .  S
O3055      C3072   1.292       .  A
O3056      C3071   1.287       .  A
O3057      C3070   1.293       .  A
O3058     Zr3568   2.438       .  S
O3058      C3067   1.292       .  A
O3059     Zr3064   2.448   1_554  S
O3059      C3068   1.295       .  A
Zr3062     O3550   2.423       .  S
Zr3062     O3545   2.339       .  S
Zr3063     O3551   2.449   1_554  S
Zr3063     O3538   2.338   1_554  S
Zr3064     O3562   2.442       .  S
Zr3064     O3570   2.338       .  S
Zr3064     O3076   2.337   1_556  S
O3066     Zr3568   2.340       .  S
C3067      C3496   1.481       .  S
C3068      C3505   1.494       .  S
C3069      C3445   1.471       .  S
C3070      C3436   1.475       .  S
C3071      C3472   1.478       .  S
C3072      C3457   1.470       .  S
C3073      C3409   1.474       .  S
C3074      C3385   1.487       .  S
H3075      O3076   0.964       .  S
H3077      O3078   0.965       .  S
O3079     Zr3115   2.435       .  S
O3079      C3090   1.292       .  A
O3080     Zr3114   2.433       .  S
O3080      C3091   1.291       .  A
O3081     Zr3087   2.405       .  S
O3081      C3092   1.287       .  A
O3082      C3093   1.290       .  A
O3083     Zr3117   2.444       .  S
O3083      C3093   1.294       .  A
O3084     Zr3116   2.427       .  S
O3084      C3092   1.289       .  A
O3085     Zr3087   2.457       .  S
O3085      C3091   1.296       .  A
O3086     Zr3087   2.453       .  S
O3086      C3090   1.295       .  A
Zr3087     O3089   2.342       .  S
Zr3087     O3095   2.344       .  S
O3088     Zr3117   2.336       .  S
O3089     Zr3115   2.338       .  S
O3089     Zr3116   2.337       .  S
C3090      C3520   1.485       .  S
C3091      C3481   1.480       .  S
C3092      C3313   1.474       .  S
C3093      C3289   1.477       .  S
H3094      O3095   0.968       .  S
O3095     Zr3114   2.340       .  S
O3095     Zr3116   2.336       .  S
H3096      O3097   0.965       .  S
O3097     Zr3117   2.342       .  S
O3098     Zr3114   2.433       .  S
O3098      C3121   1.291       .  A
O3099     Zr3115   2.434       .  S
O3099      C3122   1.289       .  A
O3100     Zr3116   2.444       .  S
O3100      C3123   1.293       .  A
O3101     Zr3117   2.439       .  S
O3101      C3124   1.292       .  A
O3102     Zr3117   2.440       .  S
O3102      C3125   1.293       .  A
O3103     Zr3116   2.449       .  S
O3103      C3126   1.293       .  A
O3104     Zr3118   2.436       .  S
O3104      C3127   1.292       .  A
O3105      C3128   1.292       .  A
O3106     Zr3116   2.430       .  S
O3106      C3127   1.291       .  A
O3107     Zr3117   2.440       .  S
O3107      C3128   1.292       .  A
O3108     Zr3114   2.424       .  S
O3108      C3123   1.289       .  A
O3109     Zr3115   2.454       .  S
O3109      C3126   1.294       .  A
O3110      C3125   1.292       .  A
O3111      C3124   1.294       .  A
O3112     Zr3118   2.441       .  S
O3112      C3121   1.293       .  A
O3113     Zr3118   2.446       .  S
O3113      C3122   1.295       .  A
Zr3114     O3120   2.336       .  S
Zr3115     O3130   2.340       .  S
Zr3116     O3120   2.340       .  S
Zr3116     O3130   2.341       .  S
Zr3117     O3119   2.341       .  S
Zr3117     O3132   2.344       .  S
Zr3118     O3120   2.340       .  S
Zr3118     O3130   2.341       .  S
C3121      C3493   1.481       .  S
C3122      C3508   1.499       .  S
C3123      C3364   1.469       .  S
C3124      C3376   1.482       .  S
C3125      C3337   1.475       .  S
C3126      C3349   1.478       .  S
C3127      C3325   1.475       .  S
C3128      C3301   1.468       .  S
H3129      O3130   0.966       .  S
H3131      O3132   0.962       .  S
O3133     Zr3169   2.434       .  S
O3133      C3144   1.291       .  A
O3134     Zr3168   2.438       .  S
O3134      C3145   1.292       .  A
O3135     Zr3141   2.440   1_565  S
O3135      C3146   1.292       .  A
O3136      C3147   1.295       .  A
O3137     Zr3171   2.446       .  S
O3137      C3147   1.293       .  A
O3138     Zr3170   2.446       .  S
O3138      C3146   1.294       .  A
O3139     Zr3141   2.419   1_565  S
O3139      C3145   1.288       .  A
O3140     Zr3141   2.442       .  S
O3140      C3144   1.292       .  A
Zr3141     O3143   2.336   1_545  S
Zr3141     O3149   2.349   1_545  S
O3142     Zr3171   2.342       .  S
O3143     Zr3169   2.335   1_565  S
O3143     Zr3170   2.346       .  S
C3146      C3253   1.488       .  S
C3147      C3241   1.495       .  S
H3148      O3149   0.966       .  S
O3149     Zr3168   2.345       .  S
O3149     Zr3170   2.342       .  S
H3150      O3151   0.966       .  S
O3151     Zr3171   2.341       .  S
O3152     Zr3168   2.445       .  S
O3152      C3175   1.294       .  A
O3153     Zr3169   2.434       .  S
O3153      C3176   1.292   1_545  A
O3154     Zr3170   2.434       .  S
O3154      C3177   1.291       .  A
O3155     Zr3171   2.424       .  S
O3155      C3178   1.291       .  A
O3156     Zr3171   2.421       .  S
O3156      C3179   1.289       .  A
O3157     Zr3170   2.420       .  S
O3157      C3180   1.288       .  A
O3158     Zr3172   2.445       .  S
O3158      C3181   1.293       .  A
O3159      C3182   1.295       .  A
O3160     Zr3170   2.456       .  S
O3160      C3181   1.296       .  A
O3161     Zr3171   2.448       .  S
O3161      C3182   1.294       .  A
O3162     Zr3168   2.432       .  S
O3162      C3177   1.292       .  A
O3163     Zr3169   2.443   1_565  S
O3163      C3180   1.293       .  A
O3164      C3179   1.295       .  A
O3165      C3178   1.289       .  A
O3166     Zr3172   2.435       .  S
O3166      C3175   1.291       .  A
O3167     Zr3172   2.426       .  S
O3167      C3176   1.290       .  A
Zr3168     O3174   2.333       .  S
Zr3169     O3184   2.343   1_545  S
Zr3170     O3174   2.333       .  S
Zr3170     O3184   2.338       .  S
Zr3171     O3173   2.338       .  S
Zr3171     O3186   2.341       .  S
Zr3172     O3174   2.333       .  S
Zr3172     O3184   2.342       .  S
C3177      C3328   1.476       .  S
C3178      C3316   1.477       .  S
C3179      C3292   1.477       .  S
C3180      C3304   1.463       .  S
C3181      C3268   1.495       .  S
C3182      C3277   1.490       .  S
H3183      O3184   0.967       .  S
H3185      O3186   0.965       .  S
O3187     Zr3223   2.435       .  S
O3187      C3198   1.291       .  A
O3188     Zr3222   2.429       .  S
O3188      C3199   1.290       .  A
O3189     Zr3699   2.446   1_554  S
O3189      C3200   1.293       .  A
O3190     Zr3195   2.430       .  S
O3190      C3201   1.291       .  A
O3191     Zr3225   2.431       .  S
O3191      C3201   1.291       .  A
O3192     Zr3224   2.442       .  S
O3192      C3200   1.292       .  A
O3193     Zr3195   2.439       .  S
O3193      C3199   1.292       .  A
O3194     Zr3195   2.433       .  S
O3194      C3198   1.291       .  A
Zr3195     O3693   2.445       .  S
Zr3195     O3196   2.343       .  S
Zr3195     O3701   2.339       .  S
Zr3195     O3205   2.346       .  S
Zr3195     O3707   2.338       .  S
O3196     Zr3222   2.336       .  S
O3196     Zr3225   2.341       .  S
O3197     Zr3699   2.338   1_554  S
O3197     Zr3727   2.336   1_554  S
O3197     Zr3224   2.334       .  S
C3198      C3928   1.467       .  S
C3199      C3916   1.475       .  S
C3200      C3352   1.474       .  S
C3201      C3361   1.466       .  S
H3202      O3203   0.968       .  S
O3203     Zr3699   2.335   1_554  S
O3203     Zr3726   2.350   1_554  S
O3203     Zr3224   2.343       .  S
H3204      O3205   0.980       .  S
O3205     Zr3223   2.334       .  S
O3205     Zr3225   2.339       .  S
O3206     Zr3222   2.425       .  S
O3206      C3229   1.290       .  A
O3207     Zr3223   2.431       .  S
O3207      C3230   1.291       .  A
O3208     Zr3224   2.425       .  S
O3208      C3231   1.290       .  A
O3209     Zr3225   2.448       .  S
O3209      C3232   1.293       .  A
O3210     Zr3225   2.441       .  S
O3210      C3233   1.293       .  A
O3211     Zr3224   2.444       .  S
O3211      C3234   1.294       .  A
O3212     Zr3730   2.441   1_554  S
O3212      C3235   1.292       .  A
O3213     Zr3226   2.450       .  S
O3213      C3236   1.295       .  A
O3214     Zr3224   2.433       .  S
O3214      C3235   1.291       .  A
O3215     Zr3225   2.436       .  S
O3215      C3236   1.292       .  A
O3216     Zr3726   2.446   1_554  S
O3216      C3231   1.295       .  A
O3217     Zr3727   2.440   1_554  S
O3217      C3234   1.292       .  A
O3218     Zr3223   2.453       .  S
O3218      C3233   1.295       .  A
O3219     Zr3222   2.457       .  S
O3219      C3232   1.295       .  A
O3220     Zr3226   2.444       .  S
O3220      C3229   1.294       .  A
O3221     Zr3226   2.446       .  S
O3221      C3230   1.294       .  A
Zr3222     O3720   2.433       .  S
Zr3222     O3707   2.351       .  S
Zr3222     O3732   2.347       .  S
Zr3222     O3240   2.334       .  S
Zr3223     O3721   2.442       .  S
Zr3223     O3701   2.343       .  S
Zr3223     O3227   2.339       .  S
Zr3223     O3742   2.342       .  S
Zr3224     O3228   2.343       .  S
Zr3224     O3238   2.330       .  S
Zr3225     O3227   2.341       .  S
Zr3225     O3240   2.338       .  S
Zr3226     O3716   2.465       .  S
Zr3226     O3227   2.345       .  S
Zr3226     O3732   2.339       .  S
Zr3226     O3240   2.345       .  S
Zr3226     O3742   2.340       .  S
O3228     Zr3726   2.340   1_554  S
O3228     Zr3730   2.332   1_554  S
C3229      C3892   1.472       .  S
C3230      C3904   1.477       .  S
C3231      C3256   1.484       .  S
C3232      C3265   1.494       .  S
C3233      C3280   1.488       .  S
C3234      C3244   1.485       .  S
C3235      C3340   1.475       .  S
C3236      C3373   1.481       .  S
H3237      O3238   0.962       .  S
O3238     Zr3727   2.339   1_554  S
O3238     Zr3730   2.333   1_554  S
H3239      O3240   0.966       .  S
C3241      C3242   1.404       .  A
C3241      C3246   1.417       .  A
C3242      C3243   1.399       .  A
C3242      H3251   1.072       .  S
C3243      C3244   1.414       .  A
C3243      S3247   1.804       .  S
C3244      C3245   1.403       .  A
C3245      C3246   1.400       .  A
C3245      H3252   1.084       .  S
C3246      S3248   1.794       .  S
S3247      H3250   1.408       .  S
S3248      H3249   1.408       .  S
C3253      C3254   1.404       .  A
C3253      C3258   1.418       .  A
C3254      C3255   1.397       .  A
C3254      H3263   1.084       .  S
C3255      C3256   1.418       .  A
C3255      S3259   1.805       .  S
C3256      C3257   1.405       .  A
C3257      C3258   1.402       .  A
C3257      H3264   1.084       .  S
C3258      S3260   1.804       .  S
S3259      H3262   1.407       .  S
S3260      H3261   1.407       .  S
C3265      C3266   1.405       .  A
C3265      C3270   1.417       .  A
C3266      C3267   1.404       .  A
C3266      H3275   1.084       .  S
C3267      C3268   1.419       .  A
C3267      S3271   1.803       .  S
C3268      C3269   1.406       .  A
C3269      C3270   1.409       .  A
C3269      H3276   1.083       .  S
C3270      S3272   1.808       .  S
S3271      H3274   1.405       .  S
S3272      H3273   1.407       .  S
C3277      C3278   1.405       .  A
C3277      C3282   1.417       .  A
C3278      C3279   1.401       .  A
C3278      H3287   1.084       .  S
C3279      C3280   1.415       .  A
C3279      S3283   1.802       .  S
C3280      C3281   1.407       .  A
C3281      C3282   1.405       .  A
C3281      H3288   1.084       .  S
C3282      S3284   1.804       .  S
S3283      H3286   1.406       .  S
S3284      H3285   1.407       .  S
C3289      C3290   1.403       .  A
C3289      C3294   1.416       .  A
C3290      C3291   1.397       .  A
C3290      H3299   1.084       .  S
C3291      C3292   1.416       .  A
C3291      S3295   1.805       .  S
C3292      C3293   1.403       .  A
C3293      C3294   1.399       .  A
C3293      H3300   1.084       .  S
C3294      S3296   1.805       .  S
S3295      H3298   1.407       .  S
S3296      H3297   1.406       .  S
C3301      C3302   1.404       .  A
C3301      C3306   1.415       .  A
C3302      C3303   1.399       .  A
C3302      H3311   1.084       .  S
C3303      C3304   1.411       .  A
C3303      S3307   1.807       .  S
C3304      C3305   1.400       .  A
C3305      C3306   1.397       .  A
C3305      H3312   1.085       .  S
C3306      S3308   1.809       .  S
S3307      H3310   1.404       .  S
S3308      H3309   1.399       .  S
C3313      C3314   1.405       .  A
C3313      C3318   1.413       .  A
C3314      C3315   1.393       .  A
C3314      H3323   1.083       .  S
C3315      C3316   1.415       .  A
C3315      S3319   1.805       .  S
C3316      C3317   1.403       .  A
C3317      C3318   1.390       .  A
C3317      H3324   1.079       .  S
C3318      S3320   1.805       .  S
S3319      H3322   1.408       .  S
S3320      H3321   1.406       .  S
C3325      C3326   1.404       .  A
C3325      C3330   1.412       .  A
C3326      C3327   1.400       .  A
C3326      H3335   1.084       .  S
C3327      C3328   1.416       .  A
C3327      S3331   1.804       .  S
C3328      C3329   1.401       .  A
C3329      C3330   1.394       .  A
C3329      H3336   1.084       .  S
C3330      S3332   1.800       .  S
S3331      H3334   1.406       .  S
S3332      H3333   1.406       .  S
C3337      C3338   1.402       .  A
C3337      C3342   1.414       .  A
C3338      C3339   1.397       .  A
C3338      H3347   1.084       .  S
C3339      C3340   1.415       .  A
C3339      S3343   1.805       .  S
C3340      C3341   1.404       .  A
C3341      C3342   1.400       .  A
C3341      H3348   1.084       .  S
C3342      S3344   1.803       .  S
S3343      H3346   1.404       .  S
S3344      H3345   1.406       .  S
C3349      C3350   1.404       .  A
C3349      C3354   1.411       .  A
C3350      C3351   1.405       .  A
C3350      H3359   1.083       .  S
C3351      C3352   1.416       .  A
C3351      S3355   1.809       .  S
C3352      C3353   1.402       .  A
C3353      C3354   1.400       .  A
C3353      H3360   1.082       .  S
C3354      S3356   1.803       .  S
S3355      H3358   1.402       .  S
S3356      H3357   1.406       .  S
C3361      C3362   1.403       .  A
C3361      C3366   1.412       .  A
C3362      C3363   1.400       .  A
C3362      H3371   1.084       .  S
C3363      C3364   1.409       .  A
C3363      S3367   1.808       .  S
C3364      C3365   1.403       .  A
C3365      C3366   1.397       .  A
C3365      H3372   1.084       .  S
C3366      S3368   1.806       .  S
S3367      H3370   1.407       .  S
S3368      H3369   1.407       .  S
C3373      C3374   1.405       .  A
C3373      C3378   1.415       .  A
C3374      C3375   1.402       .  A
C3374      H3383   1.084       .  S
C3375      C3376   1.417       .  A
C3375      S3379   1.805       .  S
C3376      C3377   1.403       .  A
C3377      C3378   1.399       .  A
C3377      H3384   1.084       .  S
C3378      S3380   1.803       .  S
S3379      H3382   1.406       .  S
S3380      H3381   1.404       .  S
C3385      C3890   1.405       .  A
C3385      C3390   1.418   1_556  A
C3386      C3889   1.404       .  A
C3386      C3387   1.400       .  A
C3386      H3395   1.084       .  S
C3387      C3892   1.416       .  A
C3387      S3391   1.807       .  S
C3388      C3733   1.483       .  S
C3388      C3891   1.416       .  A
C3388      C3389   1.404   1_556  A
C3389      C3390   1.401       .  A
C3389      H3396   1.084       .  S
C3390      S3392   1.802       .  S
S3391      H3394   1.404       .  S
S3392      H3393   1.407       .  S
C3397      C3398   1.403       .  A
C3397      C3906   1.413   1_554  A
C3398      C3399   1.394       .  A
C3398      H3407   1.084       .  S
C3399      C3400   1.412       .  A
C3399      S3403   1.804       .  S
C3400      C3734   1.470       .  S
C3400      C3905   1.404   1_554  A
C3401      C3904   1.405       .  A
C3401      C3402   1.400       .  A
C3401      H3408   1.084       .  S
C3402      C3901   1.414       .  A
C3402      S3404   1.803       .  S
S3403      H3406   1.405       .  S
S3404      H3405   1.407       .  S
C3409      C3410   1.401   1_556  A
C3409      C3918   1.416       .  A
C3410      C3411   1.391       .  A
C3410      H3419   1.084       .  S
C3411      C3412   1.414   1_554  A
C3411      S3415   1.803       .  S
C3412      C3703   1.476       .  S
C3412      C3917   1.406       .  A
C3413      C3916   1.406       .  A
C3413      C3414   1.400       .  A
C3413      H3420   1.084       .  S
C3414      C3913   1.414       .  A
C3414      S3416   1.805       .  S
S3415      H3418   1.406       .  S
S3416      H3417   1.407       .  S
C3421      C3926   1.404   1_554  A
C3421      C3426   1.415       .  A
C3422      C3925   1.401       .  A
C3422      C3423   1.397       .  A
C3422      H3431   1.084       .  S
C3423      C3928   1.413       .  A
C3423      S3427   1.806       .  S
C3424      C3702   1.476       .  S
C3424      C3927   1.416   1_554  A
C3424      C3425   1.402       .  A
C3425      C3426   1.397       .  A
C3425      H3432   1.084       .  S
C3426      S3428   1.803       .  S
S3427      H3430   1.404       .  S
S3428      H3429   1.405       .  S
C3433      C3434   1.402       .  A
C3434      C3435   1.396       .  A
C3434      H3443   1.084       .  S
C3435      C3436   1.414       .  A
C3435      S3439   1.804       .  S
C3437      C3438   1.397       .  A
C3437      H3444   1.084       .  S
C3438      S3440   1.806       .  S
S3439      H3442   1.407       .  S
S3440      H3441   1.408       .  S
C3445      C3450   1.411       .  A
C3446      C3447   1.404       .  A
C3446      H3455   1.084       .  S
C3447      S3451   1.807       .  S
C3448      C3449   1.405       .  A
C3449      C3450   1.396       .  A
C3449      H3456   1.084       .  S
C3450      S3452   1.805       .  S
S3451      H3454   1.404       .  S
S3452      H3453   1.407       .  S
C3457      C3462   1.411       .  A
C3458      C3459   1.397       .  A
C3458      H3467   1.084       .  S
C3459      S3463   1.807       .  S
C3460      C3461   1.403       .  A
C3461      C3462   1.395       .  A
C3461      H3468   1.084       .  S
C3462      S3464   1.805       .  S
S3463      H3466   1.407       .  S
S3464      H3465   1.406       .  S
C3469      C3474   1.417       .  A
C3470      C3471   1.394       .  A
C3470      H3479   1.082       .  S
C3471      S3475   1.804       .  S
C3472      C3473   1.400       .  A
C3473      C3474   1.392       .  A
C3473      H3480   1.084       .  S
C3474      S3476   1.792       .  S
S3475      H3478   1.407       .  S
S3476      H3477   1.408       .  S
C3481      C3486   1.413       .  A
C3482      C3483   1.403       .  A
C3482      H3491   1.084       .  S
C3483      S3487   1.804       .  S
C3484      C3485   1.403       .  A
C3485      C3486   1.400       .  A
C3485      H3492   1.084       .  S
C3486      S3488   1.800       .  S
S3487      H3490   1.407       .  S
S3488      H3489   1.406       .  S
C3493      C3494   1.405       .  A
C3494      C3495   1.397       .  A
C3494      H3503   1.084       .  S
C3495      C3496   1.415       .  A
C3495      S3499   1.804       .  S
C3497      C3498   1.398       .  A
C3497      H3504   1.084       .  S
C3498      S3500   1.804       .  S
S3499      H3502   1.407       .  S
S3500      H3501   1.405       .  S
C3505      C3506   1.404       .  A
C3506      C3507   1.396       .  A
C3506      H3515   1.083       .  S
C3507      C3508   1.421       .  A
C3507      S3511   1.802       .  S
C3509      C3510   1.405       .  A
C3509      H3516   1.080       .  S
C3510      S3512   1.812       .  S
S3511      H3514   1.408       .  S
S3512      H3513   1.407       .  S
C3517      C3522   1.414       .  A
C3518      C3519   1.402       .  A
C3518      H3527   1.083       .  S
C3519      S3523   1.809       .  S
C3520      C3521   1.404       .  A
C3521      C3522   1.405       .  A
C3521      H3528   1.083       .  S
C3522      S3524   1.809       .  S
S3523      H3526   1.407       .  S
S3524      H3525   1.407       .  S
O3529     Zr3565   2.447       .  S
O3529      C3540   1.293       .  A
O3530     Zr3564   2.434       .  S
O3530      C3541   1.292       .  A
O3531     Zr3537   2.426       .  S
O3531      C3542   1.290       .  A
O3532      C3543   1.292       .  A
O3533     Zr3567   2.437       .  S
O3533      C3543   1.292       .  A
O3534     Zr3566   2.431       .  S
O3534      C3542   1.291       .  A
O3535      C3541   1.293       .  A
O3536     Zr3537   2.444       .  S
O3536      C3540   1.293       .  A
Zr3537     O3539   2.340       .  S
O3539     Zr3565   2.335       .  S
O3539     Zr3566   2.342       .  S
C3540      C4021   1.488       .  S
C3541      C3988   1.477       .  S
C3542      C3925   1.463       .  S
C3543      C3901   1.477       .  S
H3544      O3545   0.968       .  S
O3545     Zr3564   2.344       .  S
H3546      O3547   0.964       .  S
O3547     Zr3567   2.336       .  S
O3548      C3571   1.294       .  A
O3549      C3572   1.288       .  A
O3550      C3573   1.289       .  A
O3551      C3574   1.294       .  A
O3552     Zr3567   2.431       .  S
O3552      C3575   1.291       .  A
O3553     Zr3566   2.447       .  S
O3553      C3576   1.294       .  A
O3554     Zr3568   2.424       .  S
O3554      C3577   1.291       .  A
O3555      C3578   1.292       .  A
O3556      C3577   1.290       .  A
O3557      C3578   1.293       .  A
O3558     Zr3564   2.436       .  S
O3558      C3573   1.292       .  A
O3559     Zr3565   2.436       .  S
O3559      C3576   1.292       .  A
O3560      C3575   1.291       .  A
O3561      C3574   1.290       .  A
O3562      C3571   1.293       .  A
O3563     Zr3568   2.451       .  S
O3563      C3572   1.296       .  A
Zr3568     O3580   2.338       .  S
C3571      C4000   1.483       .  S
C3572      C4009   1.499       .  S
C3573      C3949   1.470       .  S
C3574      C3940   1.476       .  S
C3575      C3976   1.479       .  S
C3576      C3961   1.482       .  S
C3577      C3913   1.470       .  S
C3578      C3889   1.475       .  S
H3579      O3580   0.965       .  S
H3581      O3582   0.965       .  S
O3583     Zr3619   2.427       .  S
O3583      C3594   1.290       .  A
O3584     Zr3618   2.441       .  S
O3584      C3595   1.293       .  A
O3585     Zr3591   2.431       .  S
O3585      C3596   1.292       .  A
O3586      C3597   1.289       .  A
O3587     Zr3621   2.439       .  S
O3587      C3597   1.293       .  A
O3588     Zr3620   2.437       .  S
O3588      C3596   1.291       .  A
O3589     Zr3591   2.448       .  S
O3589      C3595   1.294       .  A
O3590     Zr3591   2.450       .  S
O3590      C3594   1.295       .  A
Zr3591     O3593   2.334       .  S
Zr3591     O3599   2.340       .  S
O3592     Zr3621   2.333       .  S
O3593     Zr3619   2.338       .  S
O3593     Zr3620   2.334       .  S
C3594      C4024   1.486       .  S
C3595      C3985   1.480       .  S
C3596      C3817   1.492       .  S
C3597      C3793   1.483       .  S
H3598      O3599   0.965       .  S
O3599     Zr3618   2.341       .  S
O3599     Zr3620   2.336       .  S
H3600      O3601   0.965       .  S
O3601     Zr3621   2.339       .  S
O3602     Zr3618   2.450       .  S
O3602      C3625   1.295       .  A
O3603     Zr3619   2.430       .  S
O3603      C3626   1.288       .  A
O3604     Zr3620   2.438       .  S
O3604      C3627   1.292       .  A
O3605     Zr3621   2.428       .  S
O3605      C3628   1.290       .  A
O3606     Zr3621   2.437       .  S
O3606      C3629   1.291       .  A
O3607     Zr3620   2.440       .  S
O3607      C3630   1.292       .  A
O3608     Zr3622   2.446       .  S
O3608      C3631   1.294       .  A
O3609      C3632   1.291       .  A
O3610     Zr3620   2.438       .  S
O3610      C3631   1.293       .  A
O3611     Zr3621   2.438       .  S
O3611      C3632   1.292       .  A
O3612     Zr3618   2.430       .  S
O3612      C3627   1.291       .  A
O3613     Zr3619   2.437       .  S
O3613      C3630   1.291       .  A
O3614      C3629   1.293       .  A
O3615      C3628   1.291       .  A
O3616     Zr3622   2.441       .  S
O3616      C3625   1.293       .  A
O3617     Zr3622   2.452       .  S
O3617      C3626   1.296       .  A
Zr3618     O3624   2.336       .  S
Zr3619     O3634   2.338       .  S
Zr3620     O3624   2.340       .  S
Zr3620     O3634   2.342       .  S
Zr3621     O3623   2.339       .  S
Zr3621     O3636   2.349       .  S
Zr3622     O3624   2.341       .  S
Zr3622     O3634   2.336       .  S
C3625      C3997   1.484       .  S
C3626      C4012   1.501       .  S
C3627      C3868   1.481       .  S
C3628      C3880   1.468       .  S
C3629      C3841   1.478       .  S
C3630      C3853   1.468       .  S
C3631      C3829   1.484       .  S
C3632      C3805   1.466       .  S
H3633      O3634   0.967       .  S
H3635      O3636   0.966       .  S
O3637     Zr3673   2.427       .  S
O3637      C3648   1.290       .  A
O3638     Zr3672   2.448       .  S
O3638      C3649   1.294       .  A
O3639     Zr3645   2.436   1_565  S
O3639      C3650   1.292       .  A
O3640      C3651   1.295       .  A
O3641     Zr3675   2.433       .  S
O3641      C3651   1.290       .  A
O3642     Zr3674   2.448       .  S
O3642      C3650   1.294       .  A
O3643     Zr3645   2.443       .  S
O3643      C3649   1.293   1_545  A
O3644     Zr3645   2.440       .  S
O3644      C3648   1.293       .  A
Zr3645     O3647   2.343   1_545  S
Zr3645     O3653   2.350   1_545  S
O3646     Zr3675   2.340       .  S
O3647     Zr3673   2.339   1_565  S
O3647     Zr3674   2.339       .  S
C3650      C3757   1.478       .  S
C3651      C3745   1.496       .  S
H3652      O3653   0.966       .  S
O3653     Zr3672   2.337       .  S
O3653     Zr3674   2.342       .  S
H3654      O3655   0.966       .  S
O3655     Zr3675   2.337       .  S
O3656     Zr3672   2.436       .  S
O3656      C3679   1.292       .  A
O3657     Zr3673   2.438       .  S
O3657      C3680   1.292   1_545  A
O3658     Zr3674   2.436       .  S
O3658      C3681   1.291       .  A
O3659     Zr3675   2.448       .  S
O3659      C3682   1.295       .  A
O3660     Zr3675   2.441       .  S
O3660      C3683   1.293       .  A
O3661     Zr3674   2.424       .  S
O3661      C3684   1.288       .  A
O3662     Zr3676   2.433       .  S
O3662      C3685   1.292       .  A
O3663      C3686   1.294       .  A
O3664     Zr3674   2.448       .  S
O3664      C3685   1.294       .  A
O3665     Zr3675   2.428       .  S
O3665      C3686   1.290       .  A
O3666     Zr3672   2.447       .  S
O3666      C3681   1.294       .  A
O3667     Zr3673   2.462   1_565  S
O3667      C3684   1.296       .  A
O3668      C3683   1.291       .  A
O3669      C3682   1.290       .  A
O3670     Zr3676   2.438       .  S
O3670      C3679   1.292       .  A
O3671     Zr3676   2.444       .  S
O3671      C3680   1.293       .  A
Zr3672     O3678   2.332       .  S
Zr3673     O3688   2.341   1_545  S
Zr3674     O3678   2.331       .  S
Zr3674     O3688   2.345       .  S
Zr3675     O3677   2.344       .  S
Zr3675     O3690   2.332       .  S
Zr3676     O3678   2.342       .  S
Zr3676     O3688   2.347       .  S
C3681      C3832   1.486       .  S
C3682      C3820   1.493       .  S
C3683      C3796   1.481       .  S
C3684      C3808   1.472       .  S
C3685      C3772   1.482       .  S
C3686      C3781   1.480       .  S
H3687      O3688   0.966       .  S
H3689      O3690   0.965       .  S
O3691     Zr3727   2.445   1_554  S
O3691      C3702   1.294       .  A
O3692     Zr3726   2.423       .  S
O3692      C3703   1.290       .  A
O3693      C3704   1.292       .  A
O3694     Zr3699   2.427       .  S
O3694      C3705   1.289       .  A
O3695     Zr3729   2.448       .  S
O3695      C3705   1.294       .  A
O3696     Zr3728   2.442       .  S
O3696      C3704   1.292       .  A
O3697     Zr3699   2.434       .  S
O3697      C3703   1.291       .  A
O3698     Zr3699   2.420       .  S
O3698      C3702   1.289   1_556  A
Zr3699     O3700   2.340       .  S
Zr3699     O3709   2.341       .  S
O3700     Zr3726   2.342       .  S
O3700     Zr3729   2.340       .  S
O3701     Zr3728   2.338       .  S
C3704      C3856   1.471       .  S
C3705      C3865   1.483       .  S
H3706      O3707   0.968       .  S
O3707     Zr3728   2.346       .  S
H3708      O3709   0.978       .  S
O3709     Zr3727   2.337       .  S
O3709     Zr3729   2.337       .  S
O3710     Zr3726   2.436       .  S
O3710      C3733   1.291       .  A
O3711     Zr3727   2.425   1_554  S
O3711      C3734   1.290       .  A
O3712     Zr3728   2.446       .  S
O3712      C3735   1.294       .  A
O3713     Zr3729   2.444       .  S
O3713      C3736   1.293       .  A
O3714     Zr3729   2.445       .  S
O3714      C3737   1.294       .  A
O3715     Zr3728   2.451       .  S
O3715      C3738   1.295       .  A
O3716      C3739   1.297       .  A
O3717     Zr3730   2.423       .  S
O3717      C3740   1.289       .  A
O3718     Zr3728   2.425       .  S
O3718      C3739   1.289       .  A
O3719     Zr3729   2.427       .  S
O3719      C3740   1.291       .  A
O3720      C3735   1.291       .  A
O3721      C3738   1.292       .  A
O3722     Zr3727   2.439       .  S
O3722      C3737   1.292       .  A
O3723     Zr3726   2.452       .  S
O3723      C3736   1.295       .  A
O3724     Zr3730   2.440       .  S
O3724      C3733   1.293       .  A
O3725     Zr3730   2.438   1_554  S
O3725      C3734   1.292       .  A
Zr3726     O3744   2.331       .  S
Zr3727     O3731   2.342       .  S
Zr3728     O3732   2.346       .  S
Zr3728     O3742   2.341       .  S
Zr3729     O3731   2.345       .  S
Zr3729     O3744   2.344       .  S
Zr3730     O3731   2.349       .  S
Zr3730     O3744   2.339       .  S
C3735      C3760   1.477       .  S
C3736      C3769   1.485       .  S
C3737      C3784   1.484       .  S
C3738      C3748   1.495       .  S
C3739      C3844   1.479       .  S
C3740      C3877   1.463       .  S
H3741      O3742   0.961       .  S
H3743      O3744   0.962       .  S
C3745      C3746   1.404       .  A
C3745      C3750   1.419       .  A
C3746      C3747   1.399       .  A
C3746      H3755   1.079       .  S
C3747      C3748   1.418       .  A
C3747      S3751   1.803       .  S
C3748      C3749   1.407       .  A
C3749      C3750   1.402       .  A
C3749      H3756   1.084       .  S
C3750      S3752   1.798       .  S
S3751      H3754   1.408       .  S
S3752      H3753   1.408       .  S
C3757      C3758   1.403       .  A
C3757      C3762   1.417       .  A
C3758      C3759   1.397       .  A
C3758      H3767   1.084       .  S
C3759      C3760   1.412       .  A
C3759      S3763   1.803       .  S
C3760      C3761   1.405       .  A
C3761      C3762   1.402       .  A
C3761      H3768   1.084       .  S
C3762      S3764   1.806       .  S
S3763      H3766   1.407       .  S
S3764      H3765   1.403       .  S
C3769      C3770   1.404       .  A
C3769      C3774   1.417       .  A
C3770      C3771   1.400       .  A
C3770      H3779   1.084       .  S
C3771      C3772   1.416       .  A
C3771      S3775   1.804       .  S
C3772      C3773   1.404       .  A
C3773      C3774   1.402       .  A
C3773      H3780   1.084       .  S
C3774      S3776   1.804       .  S
S3775      H3778   1.403       .  S
S3776      H3777   1.405       .  S
C3781      C3782   1.404       .  A
C3781      C3786   1.416       .  A
C3782      C3783   1.400       .  A
C3782      H3791   1.084       .  S
C3783      C3784   1.416       .  A
C3783      S3787   1.804       .  S
C3784      C3785   1.405       .  A
C3785      C3786   1.400       .  A
C3785      H3792   1.084       .  S
C3786      S3788   1.806       .  S
S3787      H3790   1.408       .  S
S3788      H3789   1.407       .  S
C3793      C3794   1.406       .  A
C3793      C3798   1.417       .  A
C3794      C3795   1.397       .  A
C3794      H3803   1.084       .  S
C3795      C3796   1.415       .  A
C3795      S3799   1.804       .  S
C3796      C3797   1.405       .  A
C3797      C3798   1.396       .  A
C3797      H3804   1.084       .  S
C3798      S3800   1.804       .  S
S3799      H3802   1.408       .  S
S3800      H3801   1.407       .  S
C3805      C3806   1.402       .  A
C3805      C3810   1.412       .  A
C3806      C3807   1.399       .  A
C3806      H3815   1.085       .  S
C3807      C3808   1.413       .  A
C3807      S3811   1.800       .  S
C3808      C3809   1.403       .  A
C3809      C3810   1.399       .  A
C3809      H3816   1.084       .  S
C3810      S3812   1.807       .  S
S3811      H3814   1.403       .  S
S3812      H3813   1.402       .  S
C3817      C3818   1.408       .  A
C3817      C3822   1.417       .  A
C3818      C3819   1.400       .  A
C3818      H3827   1.082       .  S
C3819      C3820   1.419       .  A
C3819      S3823   1.804       .  S
C3820      C3821   1.405       .  A
C3821      C3822   1.396       .  A
C3821      H3828   1.080       .  S
C3822      S3824   1.804       .  S
S3823      H3826   1.408       .  S
S3824      H3825   1.408       .  S
C3829      C3830   1.407       .  A
C3829      C3834   1.414       .  A
C3830      C3831   1.404       .  A
C3830      H3839   1.084       .  S
C3831      C3832   1.418       .  A
C3831      S3835   1.804       .  S
C3832      C3833   1.403       .  A
C3833      C3834   1.397       .  A
C3833      H3840   1.084       .  S
C3834      S3836   1.802       .  S
S3835      H3838   1.406       .  S
S3836      H3837   1.406       .  S
C3841      C3842   1.403       .  A
C3841      C3846   1.412       .  A
C3842      C3843   1.403       .  A
C3842      H3851   1.084       .  S
C3843      C3844   1.419       .  A
C3843      S3847   1.806       .  S
C3844      C3845   1.402       .  A
C3845      C3846   1.400       .  A
C3845      H3852   1.084       .  S
C3846      S3848   1.804       .  S
S3847      H3850   1.404       .  S
S3848      H3849   1.408       .  S
C3853      C3854   1.402       .  A
C3853      C3858   1.410       .  A
C3854      C3855   1.403       .  A
C3854      H3863   1.084       .  S
C3855      C3856   1.415       .  A
C3855      S3859   1.810       .  S
C3856      C3857   1.401       .  A
C3857      C3858   1.398       .  A
C3857      H3864   1.081       .  S
C3858      S3860   1.805       .  S
S3859      H3862   1.402       .  S
S3860      H3861   1.403       .  S
C3865      C3866   1.405       .  A
C3865      C3870   1.417       .  A
C3866      C3867   1.399       .  A
C3866      H3875   1.084       .  S
C3867      C3868   1.415       .  A
C3867      S3871   1.804       .  S
C3868      C3869   1.404       .  A
C3869      C3870   1.401       .  A
C3869      H3876   1.083       .  S
C3870      S3872   1.808       .  S
S3871      H3874   1.408       .  S
S3872      H3873   1.408       .  S
C3877      C3878   1.400       .  A
C3877      C3882   1.413       .  A
C3878      C3879   1.393       .  A
C3878      H3887   1.084       .  S
C3879      C3880   1.414       .  A
C3879      S3883   1.804       .  S
C3880      C3881   1.403       .  A
C3881      C3882   1.395       .  A
C3881      H3888   1.084       .  S
C3882      S3884   1.806       .  S
S3883      H3886   1.407       .  S
S3884      H3885   1.406       .  S
C3889      C3894   1.414       .  A
C3890      C3891   1.400       .  A
C3890      H3899   1.084       .  S
C3891      S3895   1.805       .  S
C3892      C3893   1.401       .  A
C3893      C3894   1.397       .  A
C3893      H3900   1.084       .  S
C3894      S3896   1.805       .  S
S3895      H3898   1.407       .  S
S3896      H3897   1.406       .  S
C3901      C3902   1.404       .  A
C3902      C3903   1.398       .  A
C3902      H3911   1.084       .  S
C3903      C3904   1.413       .  A
C3903      S3907   1.804       .  S
C3905      C3906   1.396       .  A
C3905      H3912   1.084       .  S
C3906      S3908   1.804       .  S
S3907      H3910   1.405       .  S
S3908      H3909   1.405       .  S
C3913      C3914   1.401       .  A
C3914      C3915   1.392       .  A
C3914      H3923   1.085       .  S
C3915      C3916   1.412       .  A
C3915      S3919   1.801       .  S
C3917      C3918   1.399       .  A
C3917      H3924   1.084       .  S
C3918      S3920   1.805       .  S
S3919      H3922   1.407       .  S
S3920      H3921   1.407       .  S
C3925      C3930   1.410       .  A
C3926      C3927   1.398       .  A
C3926      H3935   1.084       .  S
C3927      S3931   1.805       .  S
C3928      C3929   1.403       .  A
C3929      C3930   1.396       .  A
C3929      H3936   1.084       .  S
C3930      S3932   1.805       .  S
S3931      H3934   1.407       .  S
S3932      H3933   1.406       .  S
C3937      C3938   1.403       .  A
C3938      C3939   1.399       .  A
C3938      H3947   1.084       .  S
C3939      C3940   1.415       .  A
C3939      S3943   1.804       .  S
C3941      C3942   1.400       .  A
C3941      H3948   1.084       .  S
C3942      S3944   1.805       .  S
S3943      H3946   1.403       .  S
S3944      H3945   1.408       .  S
C3949      C3954   1.414       .  A
C3950      C3951   1.401       .  A
C3950      H3959   1.084       .  S
C3951      S3955   1.808       .  S
C3952      C3953   1.405       .  A
C3953      C3954   1.399       .  A
C3953      H3960   1.084       .  S
C3954      S3956   1.806       .  S
S3955      H3958   1.402       .  S
S3956      H3957   1.407       .  S
C3961      C3966   1.416       .  A
C3962      C3963   1.400       .  A
C3962      H3971   1.084       .  S
C3963      S3967   1.804       .  S
C3964      C3965   1.402       .  A
C3965      C3966   1.398       .  A
C3965      H3972   1.084       .  S
C3966      S3968   1.804       .  S
S3967      H3970   1.407       .  S
S3968      H3969   1.406       .  S
C3973      C3978   1.416       .  A
C3974      C3975   1.396       .  A
C3974      H3983   1.080       .  S
C3975      S3979   1.802       .  S
C3976      C3977   1.403       .  A
C3977      C3978   1.396       .  A
C3977      H3984   1.084       .  S
C3978      S3980   1.797       .  S
S3979      H3982   1.406       .  S
S3980      H3981   1.408       .  S
C3985      C3990   1.413       .  A
C3986      C3987   1.405       .  A
C3986      H3995   1.084       .  S
C3987      S3991   1.809       .  S
C3988      C3989   1.403       .  A
C3989      C3990   1.398       .  A
C3989      H3996   1.084       .  S
C3990      S3992   1.801       .  S
S3991      H3994   1.401       .  S
S3992      H3993   1.406       .  S
C3997      C3998   1.405       .  A
C3998      C3999   1.401       .  A
C3998      H4007   1.084       .  S
C3999      C4000   1.415       .  A
C3999      S4003   1.805       .  S
C4001      C4002   1.402       .  A
C4001      H4008   1.084       .  S
C4002      S4004   1.802       .  S
S4003      H4006   1.408       .  S
S4004      H4005   1.405       .  S
C4009      C4010   1.405       .  A
C4010      C4011   1.398       .  A
C4010      H4019   1.083       .  S
C4011      C4012   1.423       .  A
C4011      S4015   1.803       .  S
C4013      C4014   1.402       .  A
C4013      H4020   1.082       .  S
C4014      S4016   1.811   1_655  S
S4015      H4018   1.408       .  S
S4016      H4017   1.408   1_455  S
C4021      C4026   1.416       .  A
C4022      C4023   1.403       .  A
C4022      H4031   1.083       .  S
C4023      S4027   1.810       .  S
C4024      C4025   1.404       .  A
C4025      C4026   1.404       .  A
C4025      H4032   1.083       .  S
C4026      S4028   1.809       .  S
S4027      H4030   1.407       .  S
S4028      H4029   1.407       .  S
