geometry optimzed in LAMMPS
_audit_creation_date              2020-11-30 
_audit_creation_method            'lammps2cif' 
_symmetry_space_group_name_H-M    'P1' 
_symmetry_Int_Tables_number       1 
_symmetry_cell_setting            triclinic 
loop_ 
_symmetry_equiv_pos_as_xyz 
  x,y,z 
_cell_length_a                    48.42995472 
_cell_length_b                    48.11133204112734 
_cell_length_c                    30.343772888143576 
_cell_angle_alpha                 91.88624644749328 
_cell_angle_beta                  89.3146794094789 
_cell_angle_gamma                 122.56839444686912 
loop_ 
_atom_site_label 
_atom_site_type_symbol 
_atom_site_fract_x 
_atom_site_fract_y 
_atom_site_fract_z 
_atom_site_charge 
O1          O  0.11580329  0.28232108  0.20186361    -0.82300
C2          C  0.23068779  0.36885765  0.30641030     0.97000
O3          O  0.22359988  0.34384669  0.28261020    -0.71500
O4          O  0.16954689  0.29027003  0.30301793    -0.75000
Al5        Al  0.18688485  0.31130870  0.24975316     1.49000
C6          C  0.13948848  0.27084514  0.30999172     0.92300
O7          O  0.12212054  0.33118893  0.30680201    -0.81300
O8          O  0.16641625  0.37607934  0.20106452    -0.74800
Al9        Al  0.12188662  0.30847429  0.25460307     1.90100
O10         O  0.16021898  0.38174449  0.28925721    -0.73900
O11         O  0.22295882  0.38067299  0.21282727    -0.73700
O12         O  0.21421808  0.38194981  0.30332363    -0.79400
O13         O  0.20680473  0.32949158  0.19584882    -0.77600
O14         O  0.16571749  0.33198544  0.25201207    -1.13700
O15         O  0.15485241  0.27412533  0.21700788    -0.72900
C16         C  0.12890250  0.26579392  0.19663796     0.97800
C17         C  0.13550404  0.36204024  0.31135644     0.94200
Al18       Al  0.18878813  0.37621517  0.25154254     1.55600
O19         O  0.11836348  0.27438862  0.29130822    -0.77600
C20         C  0.22623337  0.35987856  0.19076225     0.98300
C21         C  0.13580393  0.36267689  0.19765335     0.93200
O22         O  0.11612593  0.33739062  0.21893390    -0.82900
C23         C  0.18752916  0.12274766  0.14954318     0.86000
C24         C  0.19561519  0.11975078  0.10117131    -0.54300
C25         C  0.21438524  0.10667152  0.09496105     0.08900
C26         C  0.22307020  0.09687048  0.13758211     0.19800
C27         C  0.17200235  0.08767110  0.16695030    -0.55000
C28         C  0.18951228  0.07349799  0.15836665     0.09000
C29         C  0.22094939  0.14205012  0.17320968    -0.54500
C30         C  0.23941558  0.12841300  0.16730497     0.09500
H31         H  0.18632586  0.12649364  0.07379641     0.14700
H32         H  0.23804041  0.08590540  0.13222471    -0.00200
H33         H  0.14858124  0.07374850  0.18307166     0.14400
H34         H  0.22861668  0.16361858  0.19454403     0.14200
C35         C  0.37757477  0.31479304  0.35130865     0.86000
C36         C  0.37544727  0.30313133  0.39875773    -0.54300
C37         C  0.38985255  0.28568531  0.40488947     0.08900
C38         C  0.40601093  0.28203156  0.36321048     0.19800
C39         C  0.41450060  0.33459521  0.34223973    -0.55000
C40         C  0.42953306  0.31788963  0.34892895     0.09000
C41         C  0.36363427  0.28335968  0.32250943    -0.54500
C42         C  0.37838246  0.26621327  0.32853588     0.09500
H43         H  0.36358604  0.30829796  0.42551581     0.14100
H44         H  0.41758806  0.26779332  0.36848091    -0.00200
H45         H  0.42839754  0.36023894  0.33395107     0.14400
H46         H  0.34353737  0.27519796  0.29936387     0.14200
C47         C  0.19426906  0.11918314  0.36050457     0.86000
C48         C  0.22526876  0.13616903  0.33386406    -0.54300
C49         C  0.24471591  0.12396608  0.33734117     0.08900
C50         C  0.23082269  0.09459811  0.36901821     0.19800
C51         C  0.17698884  0.08210005  0.34592362    -0.55000
C52         C  0.19616832  0.06900244  0.35077918     0.09000
C53         C  0.20502438  0.11986901  0.40762373    -0.54500
C54         C  0.22356620  0.10679663  0.41288801     0.09500
H55         H  0.23067600  0.15611224  0.31232175     0.14100
H56         H  0.24675232  0.08473925  0.37281532    -0.00200
H57         H  0.15124849  0.06681292  0.33719418     0.14400
H58         H  0.19578147  0.12717492  0.43556835     0.14200
C59         C  0.07070465  0.37586336  0.35790653     0.86000
C60         C  0.07648212  0.36859958  0.40410145    -0.54300
C61         C  0.10823563  0.37936543  0.41424971     0.08900
C62         C  0.13238175  0.39940473  0.37658271     0.19800
C63         C  0.09295867  0.41343729  0.35510463    -0.55000
C64         C  0.12528285  0.42639724  0.36456694     0.09000
C65         C  0.08696149  0.36339799  0.32663807    -0.54500
C66         C  0.11850652  0.37450897  0.33713589     0.09500
H67         H  0.05642549  0.35643002  0.42717788     0.14100
H68         H  0.15855209  0.40914574  0.38338907    -0.00200
H69         H  0.08414887  0.42869424  0.34457477     0.14400
H70         H  0.07531465  0.34805531  0.29729117     0.14200
C71         C  0.12772252  0.43009646  0.15083101     0.86000
C72         C  0.13598688  0.42205231  0.10533420    -0.54300
C73         C  0.12230208  0.38921870  0.09567078     0.08900
C74         C  0.10056690  0.36676839  0.13317021     0.19800
C75         C  0.08998147  0.40975483  0.15233994    -0.55000
C76         C  0.07542417  0.37688378  0.14218295     0.09000
C77         C  0.13698972  0.41283291  0.18334728    -0.54500
C78         C  0.12390159  0.38020383  0.17352416     0.09500
H79         H  0.15013187  0.44111008  0.08169239     0.14100
H80         H  0.08937362  0.34001403  0.12597635    -0.00200
H81         H  0.07550979  0.42031524  0.16022548     0.14400
H82         H  0.15256966  0.42495657  0.21203652     0.14200
C83         C  0.38287661  0.31085520  0.13993256     0.86000
C84         C  0.37449919  0.28544436  0.17448642    -0.54300
C85         C  0.38448369  0.26436052  0.16529342     0.08900
C86         C  0.40682046  0.27385135  0.12427606     0.19800
C87         C  0.42072569  0.33044145  0.13953245    -0.55000
C88         C  0.43350992  0.31112042  0.13155792     0.09000
C89         C  0.37272165  0.29209621  0.09561637    -0.54500
C90         C  0.38541120  0.27327053  0.08654266     0.09500
H91         H  0.36054125  0.28359881  0.20377410     0.14100
H92         H  0.41657696  0.25789446  0.11745903    -0.00200
H93         H  0.43615170  0.35682698  0.14617509     0.14400
H94         H  0.35903631  0.29619014  0.07133011     0.14200
C95         C  0.30655255  0.37423193  0.14461200     0.86000
C96         C  0.29897453  0.37794730  0.09705531    -0.54300
C97         C  0.28164821  0.39262954  0.09334398     0.08900
C98         C  0.27328476  0.40254240  0.13776637     0.19800
C99         C  0.32348577  0.40909159  0.16577036    -0.55000
C100        C  0.30658057  0.42414790  0.16117497     0.09000
C101        C  0.27282646  0.35589745  0.16732438    -0.54500
C102        C  0.25556994  0.37074815  0.16382363     0.09500
H103        H  0.30758439  0.37056176  0.06850612     0.14100
H104        H  0.25943535  0.41477370  0.13470060    -0.00200
H105        H  0.34805853  0.42203796  0.17969699     0.14400
H106        H  0.26433584  0.33505553  0.18837487     0.14200
C107        C  0.12831142  0.19297842  0.35878761     0.86000
C108        C  0.13045236  0.20642939  0.40634214    -0.54300
C109        C  0.11660454  0.22466498  0.41211560     0.08900
C110        C  0.10142146  0.22774684  0.36986798     0.19800
C111        C  0.09136799  0.17381450  0.34887895    -0.55000
C112        C  0.07754032  0.19193852  0.35416482     0.09000
C113        C  0.14337481  0.22367223  0.33058808    -0.54500
C114        C  0.12929197  0.24175157  0.33628098     0.09500
H115        H  0.13986878  0.19996986  0.43386508     0.14100
H116        H  0.08992339  0.24232388  0.37463790    -0.00200
H117        H  0.07623246  0.14762757  0.34174164     0.14400
H118        H  0.16309262  0.23017369  0.30742482     0.14200
C119        C  0.43702861  0.13386416  0.33855220     0.86000
C120        C  0.42980286  0.13939359  0.38586658    -0.54300
C121        C  0.39759938  0.12301164  0.39694046     0.08900
C122        C  0.37448834  0.10488074  0.35699307     0.19800
C123        C  0.41680851  0.09606043  0.33035236    -0.55000
C124        C  0.38405490  0.08057754  0.33943895     0.09000
C125        C  0.41929631  0.14566351  0.31116208    -0.54500
C126        C  0.38699390  0.13141372  0.32144565     0.09500
H127        H  0.44925749  0.15319181  0.41020080     0.14100
H128        H  0.34808747  0.09313721  0.36453312    -0.00200
H129        H  0.42823249  0.08268637  0.32049345     0.14400
H130        H  0.42977696  0.16254726  0.28456472     0.14200
C131        C  0.30985908  0.38644830  0.35789869     0.86000
C132        C  0.27876673  0.36955178  0.33071572    -0.54300
C133        C  0.25994257  0.38256953  0.33532494     0.08900
C134        C  0.27436418  0.41242495  0.36865360     0.19800
C135        C  0.32768888  0.42317641  0.34540397    -0.55000
C136        C  0.30930582  0.43717034  0.35134162     0.09000
C137        C  0.29934721  0.38679854  0.40526483    -0.54500
C138        C  0.28096757  0.40016917  0.41155879     0.09500
H139        H  0.27272692  0.34893995  0.30821881     0.14100
H140        H  0.25860275  0.42251006  0.37295604    -0.00200
H141        H  0.35310549  0.43760497  0.33544041     0.14400
H142        H  0.30757174  0.37883450  0.43253408     0.14200
C143        C  0.36645984  0.06514268  0.14190010     0.86000
C144        C  0.36221604  0.07098587  0.09400316    -0.54300
C145        C  0.37671045  0.10332798  0.08402378     0.08900
C146        C  0.39376359  0.12759917  0.12396783     0.19800
C147        C  0.40354380  0.08659609  0.15076847    -0.55000
C148        C  0.41823281  0.11941192  0.14218644     0.09000
C149        C  0.35269060  0.08271745  0.16835329    -0.54500
C150        C  0.36685779  0.11509953  0.15905986     0.09500
H151        H  0.35087053  0.05124316  0.06897477     0.14100
H152        H  0.40434205  0.15386653  0.11678762    -0.00200
H153        H  0.41721621  0.07622936  0.16200946     0.14400
H154        H  0.33422457  0.07192302  0.19357031     0.14200
C155        C  0.10737403  0.18269404  0.14543272     0.86000
C156        C  0.12450373  0.21411330  0.17441510    -0.54300
C157        C  0.11390610  0.23496620  0.16941570     0.08900
C158        C  0.08568631  0.22196464  0.13577730     0.19800
C159        C  0.07068112  0.16689279  0.15665483    -0.55000
C160        C  0.05923703  0.18741458  0.15211124     0.09000
C161        C  0.10983974  0.19443113  0.09852997    -0.54500
C162        C  0.09873261  0.21472170  0.09315090     0.09500
H163        H  0.14379228  0.21926259  0.19756666     0.14100
H164        H  0.07710564  0.23895092  0.13145714    -0.00200
H165        H  0.05418559  0.14163930  0.16490925     0.14400
H166        H  0.11943945  0.18694102  0.07125330     0.14200
O167        O  0.38185794  0.21644212  0.19223896    -0.82300
C168        C  0.27333200  0.13717325  0.30758729     0.97000
O169        O  0.27978679  0.16161264  0.28513166    -0.71500
O170        O  0.33617928  0.21489764  0.30120248    -0.75000
Al171      Al  0.31449612  0.19194230  0.24914319     1.49000
C172        C  0.36663141  0.23486810  0.30405928     0.92300
O173        O  0.38098040  0.17285680  0.29466302    -0.81300
O174        O  0.32803820  0.12307199  0.19263623    -0.74800
Al175      Al  0.37842793  0.19286738  0.24397032     1.90100
O176        O  0.34155845  0.12154705  0.27922530    -0.73900
O177        O  0.27392612  0.12069894  0.21319831    -0.73700
O178        O  0.28934184  0.12365315  0.30177755    -0.79400
O179        O  0.28986870  0.17135433  0.19719160    -0.77600
O180        O  0.33451791  0.17029769  0.24644300    -1.13700
O181        O  0.34529178  0.22717432  0.21427996    -0.72900
C182        C  0.36996030  0.23411758  0.19119056     0.97800
C183        C  0.36796486  0.14227284  0.29885978     0.94200
Al184      Al  0.31044168  0.12607190  0.24662365     1.55600
O185        O  0.38603868  0.22993585  0.28190509    -0.77600
C186        C  0.26979615  0.14070102  0.19269434     0.98300
C187        C  0.35801495  0.13511337  0.18545283     0.93200
O188        O  0.37996790  0.16097014  0.20575357    -0.82900
C189        C  0.45436742  0.14325078  0.15030463    -0.00700
C190        C  0.46913180  0.13730629  0.18543405    -0.12600
C191        C  0.00320112  0.15277923  0.18863385     0.01500
C192        C  0.02370252  0.17571455  0.15686689    -0.00800
C193        C  0.00928286  0.18545116  0.12609244    -0.12500
C194        C  0.47507736  0.16925583  0.12198371     0.01400
H195        H  0.45390027  0.11923776  0.20960456     0.14400
H196        H  0.02458105  0.20396100  0.10251640     0.14400
C197        C  0.46268314  0.17843238  0.08600879     0.36100
C198        C  0.01614704  0.14395398  0.22441616     0.36000
N199        N  0.45343609  0.18630585  0.05687165    -0.44300
N200        N  0.02629713  0.13640014  0.25281215    -0.44300
C201        C  0.38918705  0.11647962  0.44449951    -0.00700
C202        C  0.40932975  0.11025233  0.46979557    -0.12600
C203        C  0.40734512  0.10923710  0.01532320     0.01500
C204        C  0.38319566  0.11207399  0.03718348    -0.00800
C205        C  0.36155830  0.11650423  0.01227522    -0.12500
C206        C  0.36468082  0.11915891  0.46601245     0.01400
H207        H  0.42757561  0.10690095  0.45389616     0.14400
H208        H  0.34211009  0.11747056  0.02882298     0.14400
C209        C  0.34285209  0.12475590  0.44153446     0.36100
C210        C  0.43079987  0.10544056  0.03877411     0.36000
N211        N  0.32530674  0.12906643  0.42164485    -0.44300
N212        N  0.45010592  0.10295296  0.05717007    -0.44300
C213        C  0.32371129  0.47342079  0.34486469    -0.00700
C214        C  0.34538585  0.48857952  0.30962112    -0.12600
C215        C  0.36369956  0.02297879  0.30550799     0.01500
C216        C  0.36127532  0.04358809  0.33770976    -0.00800
C217        C  0.33782920  0.02837660  0.37097980    -0.12500
C218        C  0.31882408  0.49386890  0.37448926     0.01400
H219        H  0.34842804  0.47342469  0.28526185     0.14400
H220        H  0.33517367  0.04353054  0.39574901     0.14400
C221        C  0.29560656  0.48103952  0.41005083     0.36100
C222        C  0.38476395  0.03614806  0.26776277     0.36000
N223        N  0.27695936  0.47178648  0.43863012    -0.44300
N224        N  0.40190099  0.04645236  0.23767243    -0.44300
C225        C  0.10916253  0.23162467  0.45696023    -0.00700
C226        C  0.07803466  0.20913145  0.47339232    -0.12600
C227        C  0.07286665  0.20533104  0.01876309     0.01500
C228        C  0.09860200  0.22603702  0.04852455    -0.00800
C229        C  0.12856414  0.25150683  0.03188450    -0.12500
C230        C  0.13417014  0.25413213  0.48630592     0.01400
H231        H  0.05885678  0.19164749  0.45084363     0.14400
H232        H  0.14869237  0.26689085  0.05451832     0.14400
C233        C  0.16636891  0.27820107  0.47038377     0.36100
C234        C  0.04299163  0.17647582  0.03316790     0.36000
N235        N  0.19213557  0.29748631  0.45742822    -0.44300
N236        N  0.01919156  0.15270100  0.04374482    -0.44300
C237        C  0.04204733  0.17717473  0.34871162    -0.00700
C238        C  0.03110952  0.19257241  0.32206881    -0.12600
C239        C  0.49755879  0.17913844  0.31533610     0.01500
C240        C  0.47405884  0.14891833  0.33523272    -0.00800
C241        C  0.48588948  0.13378940  0.36163793    -0.12500
C242        C  0.01909118  0.14775893  0.36922256     0.01400
H243        H  0.04899526  0.21539678  0.30653459     0.14400
H244        H  0.46878026  0.11169908  0.37917215     0.14400
C245        C  0.02865117  0.13266725  0.40103993     0.36100
C246        C  0.48942289  0.19838919  0.28956221     0.36000
N247        N  0.03627748  0.12080734  0.42687223    -0.44300
N248        N  0.48411391  0.21473162  0.26866450    -0.44300
C249        C  0.32367715  0.46030657  0.16235351    -0.00700
C250        C  0.34959168  0.47737640  0.13324777    -0.12600
C251        C  0.36350593  0.01078161  0.12650989     0.01500
C252        C  0.35211486  0.02858002  0.15039132    -0.00800
C253        C  0.32699394  0.01122954  0.18162561    -0.12500
C254        C  0.31260380  0.47741770  0.18721787     0.01400
H255        H  0.35793286  0.46403712  0.11379437     0.14400
H256        H  0.31767470  0.02307293  0.20184487     0.14400
C257        C  0.28695376  0.46113993  0.21929764     0.36100
C258        C  0.38821001  0.02487027  0.09284211     0.36000
N259        N  0.26674299  0.44891663  0.24566971    -0.44300
N260        N  0.40737147  0.03403974  0.06496955    -0.44300
C261        C  0.27630105  0.40184156  0.04969909    -0.00700
C262        C  0.30358882  0.42768031  0.02886402    -0.12600
C263        C  0.30385858  0.43065540  0.48325914     0.01500
C264        C  0.27605229  0.40771186  0.45764371    -0.00800
C265        C  0.24728883  0.38441857  0.47925853    -0.12500
C266        C  0.24733718  0.38116506  0.02516318     0.01400
H267        H  0.32596254  0.44348524  0.04757029     0.14400
H268        H  0.22603429  0.36649374  0.45986178     0.14400
C269        C  0.21873439  0.35441280  0.04579299     0.36100
C270        C  0.33453057  0.45453206  0.46303795     0.36000
N271        N  0.19595949  0.33302612  0.06271432    -0.44300
N272        N  0.35923233  0.47357189  0.44710610    -0.44300
C273        C  0.32736473  0.35890382  0.14616677    -0.00700
C274        C  0.31257995  0.32556485  0.15615273    -0.12600
C275        C  0.33007817  0.31014474  0.15511478     0.01500
C276        C  0.36442011  0.32844459  0.14665029    -0.00800
C277        C  0.37905713  0.36147516  0.13504740    -0.12500
C278        C  0.36079311  0.37626784  0.13305264     0.01400
H279        H  0.28653096  0.31024499  0.16172877     0.14400
H280        H  0.40426154  0.37525979  0.12420165     0.14400
C281        C  0.37659677  0.40832123  0.11377424     0.36100
C282        C  0.31109072  0.27480274  0.16041126     0.36000
N283        N  0.38959588  0.43377941  0.09762343    -0.44300
N284        N  0.29612733  0.24660981  0.16527605    -0.44300
C285        C  0.03901608  0.35580137  0.13483985    -0.00700
C286        C  0.02482437  0.36751603  0.10671618    -0.12600
C287        C  0.49076688  0.35261030  0.10392973     0.01500
C288        C  0.46969385  0.32518457  0.12977891    -0.00800
C289        C  0.48363796  0.31197165  0.15568004    -0.12500
C290        C  0.01797579  0.32705358  0.15847634     0.01400
H291        H  0.04061241  0.38915315  0.08758656     0.14400
H292        H  0.46775665  0.29068153  0.17529959     0.14400
C293        C  0.03093151  0.31366706  0.18767344     0.36100
C294        C  0.47811099  0.36589982  0.07392923     0.36000
N295        N  0.04103208  0.30264765  0.21111809    -0.44300
N296        N  0.46803018  0.37657311  0.04983993    -0.44300
C297        C  0.11691192  0.37245323  0.45824490    -0.00700
C298        C  0.14787187  0.39415418  0.47715104    -0.12600
C299        C  0.15192591  0.39641581  0.02313321     0.01500
C300        C  0.12430366  0.37760087  0.05028607    -0.00800
C301        C  0.09607494  0.35063686  0.03089586    -0.12500
C302        C  0.09301172  0.34692926  0.48496523     0.01400
H303        H  0.16836034  0.41060590  0.45672048     0.14400
H304        H  0.07555774  0.33369695  0.05109140     0.14400
C305        C  0.06562863  0.31663099  0.46628151     0.36100
C306        C  0.18424065  0.41848358  0.04171532     0.36000
N307        N  0.04389285  0.29223513  0.45126035    -0.44300
N308        N  0.21018585  0.43587200  0.05659943    -0.44300
C309        C  0.17699679  0.13801982  0.35729354    -0.00700
C310        C  0.14779450  0.12514827  0.33326722    -0.12600
C311        C  0.13277062  0.14314193  0.32944104     0.01500
C312        C  0.14540172  0.17375608  0.35324817    -0.00800
C313        C  0.17628923  0.18787251  0.37318882    -0.12500
C314        C  0.19220778  0.17090628  0.37492293     0.01400
H315        H  0.13742840  0.10179904  0.31528505     0.14400
H316        H  0.18807049  0.21247612  0.38818670     0.14400
C317        C  0.22453832  0.18842024  0.39483046     0.36100
C318        C  0.10717296  0.13103731  0.29673209     0.36000
N319        N  0.25042518  0.20245989  0.41065524    -0.44300
N320        N  0.08666343  0.12114379  0.27036853    -0.44300
C321        C  0.18268764  0.03250093  0.34936687    -0.00700
C322        C  0.18918700  0.01879752  0.38502329    -0.12600
C323        C  0.17178463  0.48447698  0.39066055     0.01500
C324        C  0.14965682  0.46259088  0.35772177    -0.00800
C325        C  0.14626041  0.47645577  0.31943811    -0.12500
C326        C  0.16131997  0.01071942  0.31587923     0.01400
H327        H  0.20555947  0.03498715  0.41115472     0.14400
H328        H  0.12963515  0.46025661  0.29342352     0.14400
C329        C  0.15276765  0.02260987  0.27880549     0.36100
C330        C  0.17387869  0.47357539  0.43337735     0.36000
N331        N  0.14504743  0.03201784  0.24979001    -0.44300
N332        N  0.17611822  0.46706473  0.46895327    -0.44300
C333        C  0.38910058  0.27208427  0.44844130    -0.00700
C334        C  0.35859136  0.25295715  0.46894023    -0.12600
C335        C  0.35659575  0.24810827  0.01431567     0.01500
C336        C  0.38555206  0.26296135  0.03998312    -0.00800
C337        C  0.41582185  0.27757390  0.01852397    -0.12500
C338        C  0.41786225  0.28228332  0.47292995     0.01400
H339        H  0.33630154  0.24409264  0.45008328     0.14400
H340        H  0.43819422  0.28874373  0.03791794     0.14400
C341        C  0.45002155  0.30047415  0.45370537     0.36100
C342        C  0.32467887  0.23111205  0.03458857     0.36000
N343        N  0.47636215  0.31485372  0.43989189    -0.44300
N344        N  0.29912386  0.21775972  0.05086672    -0.44300
C345        C  0.46563990  0.33406136  0.34774357    -0.00700
C346        C  0.47839985  0.31550363  0.33243266    -0.12600
C347        C  0.01186428  0.32787837  0.33565768     0.01500
C348        C  0.03419217  0.36123974  0.35000175    -0.00800
C349        C  0.02095550  0.37939569  0.36614633    -0.12500
C350        C  0.48732045  0.36615635  0.36592443     0.01400
H351        H  0.46190237  0.29041743  0.31999417     0.14400
H352        H  0.03669778  0.40342294  0.38203375     0.14400
C353        C  0.47600658  0.38495567  0.38897429     0.36100
C354        C  0.02131450  0.30431922  0.32811331     0.36000
N355        N  0.46710751  0.40009797  0.40756409    -0.44300
N356        N  0.02858966  0.28519308  0.32217246    -0.44300
C357        C  0.35917087  0.33240705  0.34563659    -0.00700
C358        C  0.32823500  0.31822011  0.36529914    -0.12600
C359        C  0.31195260  0.33487021  0.36835373     0.01500
C360        C  0.32690265  0.36739541  0.35247571    -0.00800
C361        C  0.35558436  0.37963183  0.32752991    -0.12500
C362        C  0.37083836  0.36183768  0.32222285     0.01400
H363        H  0.31685141  0.29399255  0.37927609     0.14400
H364        H  0.36527890  0.40215282  0.30980528     0.14400
C365        C  0.39500078  0.37219837  0.28787113     0.36100
C366        C  0.27960780  0.31744977  0.38761103     0.36000
N367        N  0.41399875  0.38060059  0.25978053    -0.44300
N368        N  0.25366421  0.30333677  0.40277755    -0.44300
C369        C  0.17367470  0.03712134  0.15789660    -0.00700
C370        C  0.19117411  0.02367859  0.17266446    -0.12600
C371        C  0.17727163  0.48944321  0.17118135     0.01500
C372        C  0.14405692  0.46754626  0.15733660    -0.00800
C373        C  0.12768240  0.48170145  0.14003321    -0.12500
C374        C  0.14193468  0.01569464  0.13995300     0.01400
H375        H  0.21615261  0.04006828  0.18444791     0.14400
H376        H  0.10406949  0.46633104  0.12395762     0.14400
C377        C  0.12406498  0.02767133  0.11816554     0.36100
C378        C  0.19889253  0.47839047  0.18087346     0.36000
N379        N  0.10979565  0.03730043  0.10078388    -0.44300
N380        N  0.21663647  0.47000683  0.18858930    -0.44300
C381        C  0.22484087  0.09626168  0.45778034    -0.00700
C382        C  0.25322629  0.11613429  0.48345752    -0.12600
C383        C  0.25127292  0.11704538  0.02972076     0.01500
C384        C  0.22052302  0.09829947  0.05016610    -0.00800
C385        C  0.19320676  0.07531167  0.02496823    -0.12500
C386        C  0.19501252  0.07404163  0.47917451     0.01400
H387        H  0.27609784  0.13336496  0.46746649     0.14400
H388        H  0.16962703  0.06052453  0.04085978     0.14400
C389        C  0.16467591  0.05328345  0.45501767     0.36100
C390        C  0.28038600  0.13925049  0.05529607     0.36000
N391        N  0.14018089  0.03679069  0.43608431    -0.44300
N392        N  0.30372471  0.15674076  0.07602205    -0.44300
C393        C  0.16656521  0.13813044  0.15290581    -0.00700
C394        C  0.13289106  0.11918040  0.16372323    -0.12600
C395        C  0.11246712  0.13156153  0.16126489     0.01500
C396        C  0.12564549  0.16459123  0.14905519    -0.00800
C397        C  0.15930372  0.18340312  0.13835263    -0.12500
C398        C  0.17925914  0.17064455  0.13930249     0.01400
H399        H  0.12106275  0.09364221  0.17182210     0.14400
H400        H  0.17013301  0.20853583  0.12779861     0.14400
C401        C  0.21217077  0.19099597  0.12280176     0.36100
C402        C  0.07816623  0.10827146  0.16904669     0.36000
N403        N  0.23823084  0.20712409  0.10852928    -0.44300
N404        N  0.05091104  0.08841326  0.17543612    -0.44300
O405        O  0.11580330  0.28232096  0.70186377    -0.82300
C406        C  0.23068803  0.36885760  0.80640998     0.97000
O407        O  0.22360007  0.34384664  0.78260987    -0.71500
O408        O  0.16954711  0.29027009  0.80301789    -0.75000
Al409      Al  0.18688496  0.31130864  0.74975300     1.49000
C410        C  0.13948872  0.27084515  0.80999166     0.92300
O411        O  0.12212080  0.33118900  0.80680197    -0.81300
O412        O  0.16641631  0.37607920  0.70106440    -0.74800
Al413      Al  0.12188676  0.30847426  0.75460311     1.90100
O414        O  0.16021928  0.38174453  0.78925705    -0.73900
O415        O  0.22295887  0.38067287  0.71282688    -0.73700
O416        O  0.21421836  0.38194982  0.80332330    -0.79400
O417        O  0.20680470  0.32949144  0.69584853    -0.77600
O418        O  0.16571762  0.33198539  0.75201194    -1.13700
O419        O  0.15485245  0.27412522  0.71700788    -0.72900
C420        C  0.12890245  0.26579374  0.69663814     0.97800
C421        C  0.13550435  0.36204032  0.81135634     0.94200
Al422      Al  0.18878830  0.37621512  0.75154230     1.55600
O423        O  0.11836368  0.27438861  0.79130824    -0.77600
C424        C  0.22623333  0.35987840  0.69076182     0.98300
C425        C  0.13580401  0.36267679  0.69765333     0.93200
O426        O  0.11612600  0.33739055  0.71893394    -0.82900
C427        C  0.18752931  0.12274765  0.64954315     0.86000
C428        C  0.19561514  0.11975043  0.60117127    -0.54300
C429        C  0.21438511  0.10667107  0.59496112     0.08900
C430        C  0.22307019  0.09687026  0.63758226     0.19800
C431        C  0.17200257  0.08767128  0.66695079    -0.55000
C432        C  0.18951234  0.07349800  0.65836717     0.09000
C433        C  0.22094966  0.14205021  0.67320937    -0.54500
C434        C  0.23941576  0.12841296  0.66730478     0.09500
H435        H  0.18632587  0.12649332  0.57379633     0.14700
H436        H  0.23804028  0.08590506  0.63222492    -0.00200
H437        H  0.14858157  0.07374893  0.68307275     0.14400
H438        H  0.22861704  0.16361873  0.69454364     0.14200
C439        C  0.37757490  0.31479270  0.85130778     0.86000
C440        C  0.37544753  0.30313131  0.89875704    -0.54300
C441        C  0.38985270  0.28568522  0.90488901     0.08900
C442        C  0.40601101  0.28203123  0.86321013     0.19800
C443        C  0.41450073  0.33459479  0.84223865    -0.55000
C444        C  0.42953316  0.31788918  0.84892826     0.09000
C445        C  0.36363433  0.28335919  0.82250889    -0.54500
C446        C  0.37838249  0.26621279  0.82853561     0.09500
H447        H  0.36358641  0.30829818  0.92551501     0.14100
H448        H  0.41758811  0.26779300  0.86848080    -0.00200
H449        H  0.42839764  0.36023831  0.83394975     0.14400
H450        H  0.34353737  0.27519733  0.79936325     0.14200
C451        C  0.19426898  0.11918284  0.86050439     0.86000
C452        C  0.22526856  0.13616847  0.83386372    -0.54300
C453        C  0.24471564  0.12396543  0.83734095     0.08900
C454        C  0.23082236  0.09459757  0.86901816     0.19800
C455        C  0.17698853  0.08209968  0.84592377    -0.55000
C456        C  0.19616791  0.06900194  0.85077933     0.09000
C457        C  0.20502444  0.11986892  0.90762354    -0.54500
C458        C  0.22356611  0.10679635  0.91288787     0.09500
H459        H  0.23067581  0.15611163  0.81232126     0.14100
H460        H  0.24675195  0.08473859  0.87281532    -0.00200
H461        H  0.15124818  0.06681265  0.83719449     0.14400
H462        H  0.19578176  0.12717504  0.93556804     0.14200
C463        C  0.07070495  0.37586333  0.85790650     0.86000
C464        C  0.07648245  0.36859951  0.90410138    -0.54300
C465        C  0.10823603  0.37936547  0.91424957     0.08900
C466        C  0.13238208  0.39940482  0.87658260     0.19800
C467        C  0.09295891  0.41343727  0.85510465    -0.55000
C468        C  0.12528310  0.42639730  0.86456696     0.09000
C469        C  0.08696183  0.36339806  0.82663797    -0.54500
C470        C  0.11850688  0.37450911  0.83713576     0.09500
H471        H  0.05642585  0.35642983  0.92717778     0.14100
H472        H  0.15855246  0.40914589  0.88338899    -0.00200
H473        H  0.08414906  0.42869422  0.84457476     0.14400
H474        H  0.07531501  0.34805539  0.79729111     0.14200
C475        C  0.12772228  0.43009628  0.65083152     0.86000
C476        C  0.13598643  0.42205219  0.60533455    -0.54300
C477        C  0.12230164  0.38921860  0.59567107     0.08900
C478        C  0.10056673  0.36676826  0.63317058     0.19800
C479        C  0.08998125  0.40975457  0.65234084    -0.55000
C480        C  0.07542397  0.37688356  0.64218370     0.09000
C481        C  0.13698979  0.41283281  0.68334750    -0.54500
C482        C  0.12390166  0.38020375  0.67352428     0.09500
H483        H  0.15013131  0.44110998  0.58169272     0.14100
H484        H  0.08937347  0.34001390  0.62597663    -0.00200
H485        H  0.07550949  0.42031494  0.66022665     0.14400
H486        H  0.15256984  0.42495646  0.71203662     0.14200
C487        C  0.38287649  0.31085504  0.63993318     0.86000
C488        C  0.37449888  0.28544400  0.67448681    -0.54300
C489        C  0.38448341  0.26436021  0.66529375     0.08900
C490        C  0.40682037  0.27385124  0.62427654     0.19800
C491        C  0.42072556  0.33044127  0.63953343    -0.55000
C492        C  0.43350978  0.31112024  0.63155880     0.09000
C493        C  0.37272177  0.29209630  0.59561682    -0.54500
C494        C  0.38541132  0.27327065  0.58654307     0.09500
H495        H  0.36054075  0.28359830  0.70377453     0.14100
H496        H  0.41657694  0.25789439  0.61745935    -0.00200
H497        H  0.43615156  0.35682674  0.64617630     0.14400
H498        H  0.35903657  0.29619038  0.57133052     0.14200
C499        C  0.30655253  0.37423187  0.64461161     0.86000
C500        C  0.29897473  0.37794748  0.59705492    -0.54300
C501        C  0.28164835  0.39262965  0.59334361     0.08900
C502        C  0.27328471  0.40254229  0.63776602     0.19800
C503        C  0.32348562  0.40909145  0.66577028    -0.55000
C504        C  0.30658042  0.42414775  0.66117482     0.09000
C505        C  0.27282634  0.35589725  0.66732369    -0.54500
C506        C  0.25556981  0.37074793  0.66382304     0.09500
H507        H  0.30758475  0.37056206  0.56850566     0.14100
H508        H  0.25943524  0.41477357  0.63470026    -0.00200
H509        H  0.34805830  0.42203778  0.67969708     0.14400
H510        H  0.26433568  0.33505520  0.68837417     0.14200
C511        C  0.12831161  0.19297828  0.85878695     0.86000
C512        C  0.13045217  0.20642887  0.90634163    -0.54300
C513        C  0.11660428  0.22466441  0.91211507     0.08900
C514        C  0.10142146  0.22774652  0.86986738     0.19800
C515        C  0.09136828  0.17381440  0.84887771    -0.55000
C516        C  0.07754049  0.19193829  0.85416365     0.09000
C517        C  0.14337524  0.22367235  0.83058790    -0.54500
C518        C  0.12929226  0.24175156  0.83628079     0.09500
H519        H  0.13986853  0.19996935  0.93386444     0.14100
H520        H  0.08992331  0.24232347  0.87463731    -0.00200
H521        H  0.07623279  0.14762738  0.84173993     0.14400
H522        H  0.16309325  0.23017402  0.80742495     0.14200
C523        C  0.43702876  0.13386396  0.83855211     0.86000
C524        C  0.42980312  0.13939366  0.88586641    -0.54300
C525        C  0.39759968  0.12301176  0.89694044     0.08900
C526        C  0.37448853  0.10488063  0.85699319     0.19800
C527        C  0.41680867  0.09606021  0.83035264    -0.55000
C528        C  0.38405507  0.08057737  0.83943923     0.09000
C529        C  0.41929636  0.14566310  0.81116173    -0.54500
C530        C  0.38699398  0.13141339  0.82144551     0.09500
H531        H  0.44925786  0.15319204  0.91020057     0.14100
H532        H  0.34808768  0.09313712  0.86453334    -0.00200
H533        H  0.42823261  0.08268609  0.82049379     0.14400
H534        H  0.42977692  0.16254655  0.78456415     0.14200
C535        C  0.30985916  0.38644790  0.85789864     0.86000
C536        C  0.27876687  0.36955154  0.83071551    -0.54300
C537        C  0.25994275  0.38256936  0.83532480     0.08900
C538        C  0.27436431  0.41242459  0.86865380     0.19800
C539        C  0.32768903  0.42317608  0.84540430    -0.55000
C540        C  0.30930600  0.43717003  0.85134206     0.09000
C541        C  0.29934715  0.38679788  0.90526479    -0.54500
C542        C  0.28096755  0.40016856  0.91155888     0.09500
H543        H  0.27272711  0.34893987  0.80821848     0.14100
H544        H  0.25860296  0.42250981  0.87295639    -0.00200
H545        H  0.35310572  0.43760471  0.83544086     0.14400
H546        H  0.30757162  0.37883372  0.93253390     0.14200
C547        C  0.36645945  0.06514209  0.64189984     0.86000
C548        C  0.36221565  0.07098533  0.59400295    -0.54300
C549        C  0.37671018  0.10332748  0.58402365     0.08900
C550        C  0.39376342  0.12759861  0.62396772     0.19800
C551        C  0.40354342  0.08659534  0.65076820    -0.55000
C552        C  0.41823253  0.11941122  0.64218624     0.09000
C553        C  0.35269031  0.08271693  0.66835313    -0.54500
C554        C  0.36685765  0.11509904  0.65905973     0.09500
H555        H  0.35087004  0.05124266  0.56897459     0.14100
H556        H  0.40434195  0.15386599  0.61678756    -0.00200
H557        H  0.41721571  0.07622857  0.66200904     0.14400
H558        H  0.33422431  0.07192258  0.69356996     0.14200
C559        C  0.10737407  0.18269386  0.64543283     0.86000
C560        C  0.12450368  0.21411310  0.67441528    -0.54300
C561        C  0.11390594  0.23496592  0.66941605     0.08900
C562        C  0.08568609  0.22196423  0.63577773     0.19800
C563        C  0.07068115  0.16689246  0.65665511    -0.55000
C564        C  0.05923688  0.18741411  0.65211158     0.09000
C565        C  0.10983967  0.19443098  0.59853018    -0.54500
C566        C  0.09873245  0.21472146  0.59315124     0.09500
H567        H  0.14379235  0.21926248  0.69756681     0.14100
H568        H  0.07710527  0.23895048  0.63145766    -0.00200
H569        H  0.05418582  0.14163906  0.66490993     0.14400
H570        H  0.11943945  0.18694094  0.57125330     0.14200
O571        O  0.38185762  0.21644167  0.69223870    -0.82300
C572        C  0.27333181  0.13717262  0.80758726     0.97000
O573        O  0.27978674  0.16161213  0.78513182    -0.71500
O574        O  0.33617933  0.21489687  0.80120301    -0.75000
Al575      Al  0.31449610  0.19194184  0.74914355     1.49000
C576        C  0.36663146  0.23486754  0.80405933     0.92300
O577        O  0.38098043  0.17285638  0.79466264    -0.81300
O578        O  0.32803807  0.12307149  0.69263609    -0.74800
Al579      Al  0.37842784  0.19286695  0.74397000     1.90100
O580        O  0.34155841  0.12154658  0.77922522    -0.73900
O581        O  0.27392604  0.12069859  0.71319821    -0.73700
O582        O  0.28934161  0.12365248  0.80177745    -0.79400
O583        O  0.28986873  0.17135410  0.69719191    -0.77600
O584        O  0.33451782  0.17029720  0.74644295    -1.13700
O585        O  0.34529173  0.22717402  0.71428049    -0.72900
C586        C  0.36996010  0.23411723  0.69119073     0.97800
C587        C  0.36796487  0.14227243  0.79885958     0.94200
Al588      Al  0.31044157  0.12607139  0.74662355     1.55600
O589        O  0.38603866  0.22993545  0.78190475    -0.77600
C590        C  0.26979618  0.14070081  0.69269439     0.98300
C591        C  0.35801482  0.13511291  0.68545261     0.93200
O592        O  0.37996778  0.16096975  0.70575318    -0.82900
C593        C  0.45436715  0.14324998  0.65030457    -0.00700
C594        C  0.46913145  0.13730535  0.68543392    -0.12600
C595        C  0.00320076  0.15277824  0.68863383     0.01500
C596        C  0.02370227  0.17571383  0.65686715    -0.00800
C597        C  0.00928261  0.18545054  0.62609275    -0.12500
C598        C  0.47507716  0.16925511  0.62198379     0.01400
H599        H  0.45389981  0.11923666  0.70960434     0.14400
H600        H  0.02458082  0.20396047  0.60251690     0.14400
C601        C  0.46268304  0.17843161  0.58600867     0.36100
C602        C  0.01614658  0.14395283  0.72441614     0.36000
N603        N  0.45343608  0.18630498  0.55687134    -0.44300
N604        N  0.02629660  0.13639885  0.75281202    -0.44300
C605        C  0.38918746  0.11647996  0.94449954    -0.00700
C606        C  0.40933019  0.11025281  0.96979574    -0.12600
C607        C  0.40734470  0.10923656  0.51532303     0.01500
C608        C  0.38319535  0.11207354  0.53718342    -0.00800
C609        C  0.36155799  0.11650387  0.51227528    -0.12500
C610        C  0.36468115  0.11915922  0.96601237     0.01400
H611        H  0.42757615  0.10690142  0.95389638     0.14400
H612        H  0.34210983  0.11747023  0.52882316     0.14400
C613        C  0.34285242  0.12475613  0.94153432     0.36100
C614        C  0.43079948  0.10543993  0.53877382     0.36000
N615        N  0.32530710  0.12906677  0.92164471    -0.44300
N616        N  0.45010554  0.10295234  0.55716963    -0.44300
C617        C  0.32371140  0.47342046  0.84486524    -0.00700
C618        C  0.34538570  0.48857916  0.80962144    -0.12600
C619        C  0.36369957  0.02297873  0.80550787     0.01500
C620        C  0.36127544  0.04358796  0.83770983    -0.00800
C621        C  0.33782930  0.02837646  0.87097986    -0.12500
C622        C  0.31882436  0.49386860  0.87449002     0.01400
H623        H  0.34842783  0.47342429  0.78526210     0.14400
H624        H  0.33517383  0.04353034  0.89574909     0.14400
C625        C  0.29560727  0.48103929  0.91005206     0.36100
C626        C  0.38476401  0.03614807  0.76776268     0.36000
N627        N  0.27696040  0.47178642  0.93863173    -0.44300
N628        N  0.40190108  0.04645246  0.73767241    -0.44300
C629        C  0.10916239  0.23162428  0.95695968    -0.00700
C630        C  0.07803454  0.20913117  0.97339195    -0.12600
C631        C  0.07286668  0.20533109  0.51876339     0.01500
C632        C  0.09860194  0.22603695  0.54852502    -0.00800
C633        C  0.12856411  0.25150686  0.53188519    -0.12500
C634        C  0.13417009  0.25413185  0.98630519     0.01400
H635        H  0.05885663  0.19164707  0.95084339     0.14400
H636        H  0.14869229  0.26689078  0.55451914     0.14400
C637        C  0.16636889  0.27820064  0.97038286     0.36100
C638        C  0.04299151  0.17647589  0.53316793     0.36000
N639        N  0.19213556  0.29748576  0.95742716    -0.44300
N640        N  0.01919126  0.15270113  0.54374446    -0.44300
C641        C  0.04204747  0.17717442  0.84871047    -0.00700
C642        C  0.03110955  0.19257216  0.82206799    -0.12600
C643        C  0.49755884  0.17913827  0.81533574     0.01500
C644        C  0.47405897  0.14891815  0.83523241    -0.00800
C645        C  0.48588969  0.13378925  0.86163755    -0.12500
C646        C  0.01909142  0.14775872  0.86922168     0.01400
H647        H  0.04899521  0.21539657  0.80653384     0.14400
H648        H  0.46878059  0.11169905  0.87917189     0.14400
C649        C  0.02865158  0.13266716  0.90103904     0.36100
C650        C  0.48942287  0.19838931  0.78956261     0.36000
N651        N  0.03627801  0.12080744  0.92687147    -0.44300
N652        N  0.48411376  0.21473202  0.76866572    -0.44300
C653        C  0.32367699  0.46030642  0.66235326    -0.00700
C654        C  0.34959150  0.47737627  0.63324744    -0.12600
C655        C  0.36350546  0.01078098  0.62650977     0.01500
C656        C  0.35211437  0.02857943  0.65039109    -0.00800
C657        C  0.32699346  0.01122903  0.68162537    -0.12500
C658        C  0.31260359  0.47741753  0.68721753     0.01400
H659        H  0.35793270  0.46403701  0.61379399     0.14400
H660        H  0.31767410  0.02307246  0.70184451     0.14400
C661        C  0.28695343  0.46113979  0.71929713     0.36100
C662        C  0.38820941  0.02486949  0.59284181     0.36000
N663        N  0.26674253  0.44891651  0.74566908    -0.44300
N664        N  0.40737082  0.03403888  0.56496918    -0.44300
C665        C  0.27630102  0.40184162  0.54969880    -0.00700
C666        C  0.30358852  0.42768083  0.52886391    -0.12600
C667        C  0.30385894  0.43065469  0.98325922     0.01500
C668        C  0.27605249  0.40771138  0.95764387    -0.00800
C669        C  0.24728888  0.38441853  0.97925879    -0.12500
C670        C  0.24733725  0.38116486  0.52516286     0.01400
H671        H  0.32596216  0.44348607  0.54757030     0.14400
H672        H  0.22603418  0.36649380  0.95986209     0.14400
C673        C  0.21873471  0.35441215  0.54579256     0.36100
C674        C  0.33453114  0.45453082  0.96303801     0.36000
N675        N  0.19596008  0.33302514  0.56271389    -0.44300
N676        N  0.35923313  0.47357026  0.94710634    -0.44300
C677        C  0.32736467  0.35890372  0.64616647    -0.00700
C678        C  0.31257976  0.32556465  0.65615201    -0.12600
C679        C  0.33007794  0.31014452  0.65511453     0.01500
C680        C  0.36441998  0.32844443  0.64665067    -0.00800
C681        C  0.37905715  0.36147510  0.63504802    -0.12500
C682        C  0.36079319  0.37626783  0.63305300     0.01400
H683        H  0.28653063  0.31024472  0.66172753     0.14400
H684        H  0.40426167  0.37525981  0.62420279     0.14400
C685        C  0.37659714  0.40832145  0.61377510     0.36100
C686        C  0.31109049  0.27480250  0.66041112     0.36000
N687        N  0.38959651  0.43377979  0.59762474    -0.44300
N688        N  0.29612722  0.24660957  0.66527603    -0.44300
C689        C  0.03901589  0.35580114  0.63484062    -0.00700
C690        C  0.02482414  0.36751569  0.60671681    -0.12600
C691        C  0.49076668  0.35260999  0.60393049     0.01500
C692        C  0.46969370  0.32518441  0.62977987    -0.00800
C693        C  0.48363779  0.31197156  0.65568118    -0.12500
C694        C  0.01797565  0.32705354  0.65847744     0.01400
H695        H  0.04061215  0.38915271  0.58758698     0.14400
H696        H  0.46775650  0.29068154  0.67530074     0.14400
C697        C  0.03093138  0.31366712  0.68767473     0.36100
C698        C  0.47811077  0.36589939  0.57392986     0.36000
N699        N  0.04103188  0.30264764  0.71111935    -0.44300
N700        N  0.46803001  0.37657271  0.54984054    -0.44300
C701        C  0.11691246  0.37245333  0.95824465    -0.00700
C702        C  0.14787241  0.39415435  0.97715077    -0.12600
C703        C  0.15192533  0.39641569  0.52313348     0.01500
C704        C  0.12430308  0.37760079  0.55028633    -0.00800
C705        C  0.09607433  0.35063683  0.53089616    -0.12500
C706        C  0.09301237  0.34692927  0.98496493     0.01400
H707        H  0.16836084  0.41060621  0.95672017     0.14400
H708        H  0.07555708  0.33369692  0.55109176     0.14400
C709        C  0.06562941  0.31663092  0.96628117     0.36100
C710        C  0.18424006  0.41848343  0.54171553     0.36000
N711        N  0.04389369  0.29223503  0.95125999    -0.44300
N712        N  0.21018534  0.43587195  0.55659949    -0.44300
C713        C  0.17699685  0.13801963  0.85729326    -0.00700
C714        C  0.14779477  0.12514826  0.83326645    -0.12600
C715        C  0.13277109  0.14314211  0.82944002     0.01500
C716        C  0.14540199  0.17375603  0.85324755    -0.00800
C717        C  0.17628934  0.18787234  0.87318859    -0.12500
C718        C  0.19220787  0.17090607  0.87492266     0.01400
H719        H  0.13742884  0.10179922  0.81528406     0.14400
H720        H  0.18807050  0.21247584  0.88818657     0.14400
C721        C  0.22453854  0.18842015  0.89482993     0.36100
C722        C  0.10717414  0.13103814  0.79673015     0.36000
N723        N  0.25042545  0.20245997  0.91065448    -0.44300
N724        N  0.08666523  0.12114528  0.77036572    -0.44300
C725        C  0.18268703  0.03250041  0.84936714    -0.00700
C726        C  0.18918635  0.01879702  0.88502361    -0.12600
C727        C  0.17178470  0.48447708  0.89066079     0.01500
C728        C  0.14965703  0.46259095  0.85772189    -0.00800
C729        C  0.14626072  0.47645584  0.81943816    -0.12500
C730        C  0.16131930  0.01071886  0.81587953     0.01400
H731        H  0.20555880  0.03498669  0.91115506     0.14400
H732        H  0.12963555  0.46025668  0.79342354     0.14400
C733        C  0.15276689  0.02260924  0.77880580     0.36100
C734        C  0.17387863  0.47357549  0.93337766     0.36000
N735        N  0.14504645  0.03201702  0.74979035    -0.44300
N736        N  0.17611811  0.46706486  0.96895362    -0.44300
C737        C  0.38910061  0.27208420  0.94844091    -0.00700
C738        C  0.35859134  0.25295709  0.96893976    -0.12600
C739        C  0.35659582  0.24810839  0.51431614     0.01500
C740        C  0.38555219  0.26296154  0.53998353    -0.00800
C741        C  0.41582193  0.27757418  0.51852430    -0.12500
C742        C  0.41786220  0.28228309  0.97292960     0.01400
H743        H  0.33630156  0.24409263  0.95008275     0.14400
H744        H  0.43819443  0.28874418  0.53791831     0.14400
C745        C  0.45002156  0.30047385  0.95370503     0.36100
C746        C  0.32467894  0.23111220  0.53458908     0.36000
N747        N  0.47636212  0.31485332  0.93989156    -0.44300
N748        N  0.29912386  0.21775990  0.55086702    -0.44300
C749        C  0.46564003  0.33406094  0.84774309    -0.00700
C750        C  0.47840011  0.31550322  0.83243254    -0.12600
C751        C  0.01186470  0.32787816  0.83565769     0.01500
C752        C  0.03419245  0.36123956  0.85000163    -0.00800
C753        C  0.02095567  0.37939553  0.86614581    -0.12500
C754        C  0.48732048  0.36615601  0.86592373     0.01400
H755        H  0.46190266  0.29041693  0.81999425     0.14400
H756        H  0.03669779  0.40342276  0.88203299     0.14400
C757        C  0.47600644  0.38495528  0.88897335     0.36100
C758        C  0.02131507  0.30431909  0.82811369     0.36000
N759        N  0.46710707  0.40009736  0.90756300    -0.44300
N760        N  0.02859031  0.28519296  0.82217334    -0.44300
C761        C  0.35917094  0.33240665  0.84563559    -0.00700
C762        C  0.32823496  0.31821951  0.86529795    -0.12600
C763        C  0.31195263  0.33486968  0.86835295     0.01500
C764        C  0.32690270  0.36739499  0.85247542    -0.00800
C765        C  0.35558450  0.37963160  0.82752970    -0.12500
C766        C  0.37083850  0.36183746  0.82222234     0.01400
H767        H  0.31685138  0.29399193  0.87927453     0.14400
H768        H  0.36527907  0.40215265  0.80980547     0.14400
C769        C  0.39500110  0.37219854  0.78787083     0.36100
C770        C  0.27960785  0.31744916  0.88761032     0.36000
N771        N  0.41399930  0.38060118  0.75978047    -0.44300
N772        N  0.25366429  0.30333611  0.90277689    -0.44300
C773        C  0.17367467  0.03712137  0.65789753    -0.00700
C774        C  0.19117398  0.02367863  0.67266569    -0.12600
C775        C  0.17727135  0.48944308  0.67118138     0.01500
C776        C  0.14405660  0.46754605  0.65733701    -0.00800
C777        C  0.12768186  0.48170109  0.64003386    -0.12500
C778        C  0.14193466  0.01569468  0.63995392     0.01400
H779        H  0.21615247  0.04006833  0.68444927     0.14400
H780        H  0.10406888  0.46633060  0.62395856     0.14400
C781        C  0.12406495  0.02767137  0.61816659     0.36100
C782        C  0.19889236  0.47839046  0.68087341     0.36000
N783        N  0.10979566  0.03730059  0.60078505    -0.44300
N784        N  0.21663639  0.47000694  0.68858927    -0.44300
C785        C  0.22484068  0.09626150  0.95778028    -0.00700
C786        C  0.25322617  0.11613401  0.98345737    -0.12600
C787        C  0.25127299  0.11704542  0.52972091     0.01500
C788        C  0.22052312  0.09829915  0.55016620    -0.00800
C789        C  0.19320696  0.07531127  0.52496823    -0.12500
C790        C  0.19501223  0.07404178  0.97917453     0.01400
H791        H  0.27609779  0.13336440  0.96746626     0.14400
H792        H  0.16962729  0.06052396  0.54085968     0.14400
C793        C  0.16467560  0.05328369  0.95501772     0.36100
C794        C  0.28038596  0.13925076  0.55529625     0.36000
N795        N  0.14018058  0.03679099  0.93608422    -0.44300
N796        N  0.30372458  0.15674119  0.57602231    -0.44300
C797        C  0.16656532  0.13813037  0.65290564    -0.00700
C798        C  0.13289096  0.11917998  0.66372189    -0.12600
C799        C  0.11246702  0.13156111  0.66126357     0.01500
C800        C  0.12564557  0.16459110  0.64905506    -0.00800
C801        C  0.15930391  0.18340313  0.63835304    -0.12500
C802        C  0.17925934  0.17064459  0.63930283     0.01400
H803        H  0.12106253  0.09364162  0.67181938     0.14400
H804        H  0.17013330  0.20853601  0.62779940     0.14400
C805        C  0.21217099  0.19099606  0.62280225     0.36100
C806        C  0.07816595  0.10827064  0.66904361     0.36000
N807        N  0.23823101  0.20712426  0.60852962    -0.44300
N808        N  0.05091060  0.08841202  0.67543152    -0.44300
O809        O  0.11580338  0.78232105  0.20186371    -0.82300
C810        C  0.23068797  0.86885778  0.30641005     0.97000
O811        O  0.22360010  0.84384686  0.28260986    -0.71500
O812        O  0.16954713  0.79027021  0.30301781    -0.75000
Al813      Al  0.18688502  0.81130882  0.24975294     1.49000
C814        C  0.13948875  0.77084530  0.30999167     0.92300
O815        O  0.12212079  0.83118909  0.30680198    -0.81300
O816        O  0.16641627  0.87607935  0.20106445    -0.74800
Al817      Al  0.12188677  0.80847436  0.25460308     1.90100
O818        O  0.16021923  0.88174463  0.28925712    -0.73900
O819        O  0.22295886  0.88067306  0.21282696    -0.73700
O820        O  0.21421828  0.88194996  0.30332334    -0.79400
O821        O  0.20680478  0.82949167  0.19584848    -0.77600
O822        O  0.16571763  0.83198552  0.25201193    -1.13700
O823        O  0.15485261  0.77412540  0.21700773    -0.72900
C824        C  0.12890263  0.76579392  0.19663796     0.97800
C825        C  0.13550430  0.86204040  0.31135639     0.94200
Al826      Al  0.18878826  0.87621526  0.25154234     1.55600
O827        O  0.11836370  0.77438875  0.29130824    -0.77600
C828        C  0.22623340  0.85987865  0.19076188     0.98300
C829        C  0.13580396  0.86267690  0.19765331     0.93200
O830        O  0.11612596  0.83739064  0.21893392    -0.82900
C831        C  0.18752945  0.62274773  0.14954335     0.86000
C832        C  0.19561535  0.61975063  0.10117143    -0.54300
C833        C  0.21438537  0.60667133  0.09496124     0.08900
C834        C  0.22307047  0.59687050  0.13758233     0.19800
C835        C  0.17200276  0.58767131  0.16695079    -0.55000
C836        C  0.18951260  0.57349813  0.15836711     0.09000
C837        C  0.22094976  0.64205028  0.17320964    -0.54500
C838        C  0.23941592  0.62841313  0.16730500     0.09500
H839        H  0.18632600  0.62649340  0.07379657     0.14700
H840        H  0.23804063  0.58590540  0.13222496    -0.00200
H841        H  0.14858158  0.57374874  0.18307245     0.14400
H842        H  0.22861710  0.66361880  0.19454397     0.14200
C843        C  0.37757493  0.81479300  0.35130818     0.86000
C844        C  0.37544765  0.80313156  0.39875736    -0.54300
C845        C  0.38985294  0.78568556  0.40488922     0.08900
C846        C  0.40601116  0.78203161  0.36321021     0.19800
C847        C  0.41450075  0.83459516  0.34223897    -0.55000
C848        C  0.42953323  0.81788958  0.34892836     0.09000
C849        C  0.36363437  0.78335954  0.32250918    -0.54500
C850        C  0.37838257  0.76621315  0.32853580     0.09500
H851        H  0.36358652  0.80829835  0.42551541     0.14100
H852        H  0.41758832  0.76779340  0.36848072    -0.00200
H853        H  0.42839760  0.86023869  0.33395017     0.14400
H854        H  0.34353740  0.77519771  0.29936363     0.14200
C855        C  0.19426913  0.61918312  0.36050443     0.86000
C856        C  0.22526873  0.63616877  0.33386376    -0.54300
C857        C  0.24471582  0.62396576  0.33734100     0.08900
C858        C  0.23082256  0.59459788  0.36901819     0.19800
C859        C  0.17698871  0.58209997  0.34592377    -0.55000
C860        C  0.19616810  0.56900225  0.35077937     0.09000
C861        C  0.20502459  0.61986916  0.40762360    -0.54500
C862        C  0.22356631  0.60679666  0.41288793     0.09500
H863        H  0.23067601  0.65611196  0.31232132     0.14100
H864        H  0.24675212  0.58473893  0.37281530    -0.00200
H865        H  0.15124838  0.56681296  0.33719439     0.14400
H866        H  0.19578181  0.62717521  0.43556817     0.14200
C867        C  0.07070494  0.87586355  0.35790639     0.86000
C868        C  0.07648239  0.86859980  0.40410132    -0.54300
C869        C  0.10823591  0.87936571  0.41424965     0.08900
C870        C  0.13238202  0.89940495  0.37658263     0.19800
C871        C  0.09295898  0.91343748  0.35510438    -0.55000
C872        C  0.12528315  0.92639746  0.36456675     0.09000
C873        C  0.08696179  0.86339816  0.32663798    -0.54500
C874        C  0.11850681  0.87450915  0.33713585     0.09500
H875        H  0.05642569  0.85643015  0.42717773     0.14100
H876        H  0.15855237  0.90914597  0.38338905    -0.00200
H877        H  0.08414919  0.92869447  0.34457440     0.14400
H878        H  0.07531503  0.84805559  0.29729103     0.14200
C879        C  0.12772238  0.93009632  0.15083087     0.86000
C880        C  0.13598648  0.92205206  0.10533399    -0.54300
C881        C  0.12230166  0.88921842  0.09567071     0.08900
C882        C  0.10056670  0.86676823  0.13317032     0.19800
C883        C  0.08998135  0.90975471  0.15234025    -0.55000
C884        C  0.07542401  0.87688363  0.14218327     0.09000
C885        C  0.13698984  0.91283291  0.18334700    -0.54500
C886        C  0.12390162  0.88020380  0.17352404     0.09500
H887        H  0.15013140  0.94110977  0.08169209     0.14100
H888        H  0.08937337  0.84001382  0.12597654    -0.00200
H889        H  0.07550973  0.92031511  0.16022591     0.14400
H890        H  0.15256993  0.92495666  0.21203605     0.14200
C891        C  0.38287647  0.81085518  0.13993287     0.86000
C892        C  0.37449900  0.78544429  0.17448671    -0.54300
C893        C  0.38448357  0.76436051  0.16529375     0.08900
C894        C  0.40682035  0.77385135  0.12427640     0.19800
C895        C  0.42072553  0.83044139  0.13953293    -0.55000
C896        C  0.43350977  0.81112042  0.13155836     0.09000
C897        C  0.37272157  0.79209620  0.09561667    -0.54500
C898        C  0.38541109  0.77327051  0.08654299     0.09500
H899        H  0.36054099  0.78359870  0.20377438     0.14100
H900        H  0.41657687  0.75789450  0.11745937    -0.00200
H901        H  0.43615160  0.85682701  0.14617583     0.14400
H902        H  0.35903614  0.79619009  0.07133032     0.14200
C903        C  0.30655261  0.87423209  0.14461173     0.86000
C904        C  0.29897466  0.87794756  0.09705502    -0.54300
C905        C  0.28164837  0.89262982  0.09334369     0.08900
C906        C  0.27328483  0.90254259  0.13776610     0.19800
C907        C  0.32348580  0.90909174  0.16577023    -0.55000
C908        C  0.30658061  0.92414805  0.16117476     0.09000
C909        C  0.27282650  0.85589760  0.16732398    -0.54500
C910        C  0.25556997  0.87074827  0.16382327     0.09500
H911        H  0.30758454  0.87056204  0.06850583     0.14100
H912        H  0.25943543  0.91477390  0.13470034    -0.00200
H913        H  0.34805852  0.92203811  0.17969692     0.14400
H914        H  0.26433584  0.83505557  0.18837449     0.14200
C915        C  0.12831179  0.69297864  0.35878744     0.86000
C916        C  0.13045275  0.70642959  0.40634203    -0.54300
C917        C  0.11660488  0.72466517  0.41211548     0.08900
C918        C  0.10142176  0.72774700  0.36986791     0.19800
C919        C  0.09136837  0.67381470  0.34887878    -0.55000
C920        C  0.07754066  0.69193867  0.35416471     0.09000
C921        C  0.14337518  0.72367248  0.33058799    -0.54500
C922        C  0.12929229  0.74175177  0.33628092     0.09500
H923        H  0.13986917  0.69997014  0.43386478     0.14100
H924        H  0.08992365  0.74232398  0.37463780    -0.00200
H925        H  0.07623286  0.64762773  0.34174137     0.14400
H926        H  0.16309301  0.73017399  0.30742475     0.14200
C927        C  0.43702894  0.63386427  0.33855237     0.86000
C928        C  0.42980318  0.63939381  0.38586669    -0.54300
C929        C  0.39759968  0.62301182  0.39694052     0.08900
C930        C  0.37448868  0.60488083  0.35699314     0.19800
C931        C  0.41680888  0.59606051  0.33035267    -0.55000
C932        C  0.38405524  0.58057761  0.33943914     0.09000
C933        C  0.41929662  0.64566352  0.31116212    -0.54500
C934        C  0.38699421  0.63141372  0.32144564     0.09500
H935        H  0.44925776  0.65319210  0.41020089     0.14100
H936        H  0.34808776  0.59313726  0.36453314    -0.00200
H937        H  0.42823288  0.58268645  0.32049385     0.14400
H938        H  0.42977728  0.66254725  0.28456469     0.14200
C939        C  0.30985901  0.88644811  0.35789897     0.86000
C940        C  0.27876677  0.86955177  0.33071579    -0.54300
C941        C  0.25994263  0.88256955  0.33532494     0.08900
C942        C  0.27436416  0.91242484  0.36865386     0.19800
C943        C  0.32768893  0.92317632  0.34540457    -0.55000
C944        C  0.30930586  0.93717026  0.35134213     0.09000
C945        C  0.29934695  0.88679815  0.40526505    -0.54500
C946        C  0.28096737  0.90016883  0.41155902     0.09500
H947        H  0.27272701  0.84894002  0.30821871     0.14100
H948        H  0.25860279  0.92251001  0.37295633    -0.00200
H949        H  0.35310555  0.93760490  0.33544125     0.14400
H950        H  0.30757137  0.87883398  0.43253430     0.14200
C951        C  0.36645979  0.56514247  0.14190011     0.86000
C952        C  0.36221599  0.57098569  0.09400317    -0.54300
C953        C  0.37671050  0.60332784  0.08402383     0.08900
C954        C  0.39376368  0.62759898  0.12396789     0.19800
C955        C  0.40354374  0.58659579  0.15076846    -0.55000
C956        C  0.41823284  0.61941164  0.14218645     0.09000
C957        C  0.35269061  0.58271729  0.16835336    -0.54500
C958        C  0.36685788  0.61509939  0.15905993     0.09500
H959        H  0.35087041  0.55124303  0.06897484     0.14100
H960        H  0.40434222  0.65386635  0.11678771    -0.00200
H961        H  0.41721612  0.57622899  0.16200944     0.14400
H962        H  0.33422467  0.57192292  0.19357033     0.14200
C963        C  0.10737426  0.68269401  0.14543280     0.86000
C964        C  0.12450395  0.71411333  0.17441511    -0.54300
C965        C  0.11390622  0.73496615  0.16941576     0.08900
C966        C  0.08568635  0.72196444  0.13577750     0.19800
C967        C  0.07068138  0.66689271  0.15665513    -0.55000
C968        C  0.05923715  0.68741436  0.15211154     0.09000
C969        C  0.10983983  0.69443104  0.09853006    -0.54500
C970        C  0.09873265  0.71472155  0.09315103     0.09500
H971        H  0.14379254  0.71926269  0.19756661     0.14100
H972        H  0.07710555  0.73895065  0.13145740    -0.00200
H973        H  0.05418591  0.64163919  0.16490994     0.14400
H974        H  0.11943953  0.68694087  0.07125319     0.14200
O975        O  0.38185791  0.71644207  0.19223897    -0.82300
C976        C  0.27333203  0.63717299  0.30758740     0.97000
O977        O  0.27978692  0.66161244  0.28513187    -0.71500
O978        O  0.33617945  0.71489726  0.30120309    -0.75000
Al979      Al  0.31449629  0.69194217  0.24914364     1.49000
C980        C  0.36663157  0.73486791  0.30405952     0.92300
O981        O  0.38098072  0.67285675  0.29466282    -0.81300
O982        O  0.32803835  0.62307189  0.19263638    -0.74800
Al983      Al  0.37842809  0.69286733  0.24397028     1.90100
O984        O  0.34155867  0.62154695  0.27922538    -0.73900
O985        O  0.27392632  0.62069892  0.21319840    -0.73700
O986        O  0.28934190  0.62365292  0.30177773    -0.79400
O987        O  0.28986892  0.67135438  0.19719196    -0.77600
O988        O  0.33451807  0.67029757  0.24644319    -1.13700
O989        O  0.34529194  0.72717437  0.21428059    -0.72900
C990        C  0.36996034  0.73411759  0.19119091     0.97800
C991        C  0.36796515  0.64227278  0.29885971     0.94200
Al992      Al  0.31044184  0.62607178  0.24662379     1.55600
O993        O  0.38603883  0.72993579  0.28190510    -0.77600
C994        C  0.26979640  0.64070106  0.19269451     0.98300
C995        C  0.35801509  0.63511327  0.18545291     0.93200
O996        O  0.37996807  0.66097010  0.20575349    -0.82900
C997        C  0.45436746  0.64325045  0.15030467    -0.00700
C998        C  0.46913177  0.63730585  0.18543406    -0.12600
C999        C  0.00320110  0.65277879  0.18863399     0.01500
C1000       C  0.02370257  0.67571419  0.15686715    -0.00800
C1001       C  0.00928295  0.68545083  0.12609259    -0.12500
C1002       C  0.47507747  0.66925552  0.12198383     0.01400
H1003       H  0.45390018  0.61923726  0.20960448     0.14400
H1004       H  0.02458111  0.70396057  0.10251666     0.14400
C1005       C  0.46268335  0.67843213  0.08600880     0.36100
C1006       C  0.01614692  0.64395352  0.22441642     0.36000
N1007       N  0.45343637  0.68630561  0.05687163    -0.44300
N1008       N  0.02629699  0.63639968  0.25281243    -0.44300
C1009       C  0.38918736  0.61647987  0.44449958    -0.00700
C1010       C  0.40933007  0.61025268  0.46979576    -0.12600
C1011       C  0.40734505  0.60923689  0.01532316     0.01500
C1012       C  0.38319570  0.61207389  0.03718355    -0.00800
C1013       C  0.36155834  0.61650420  0.01227537    -0.12500
C1014       C  0.36468104  0.61915911  0.46601240     0.01400
H1015       H  0.42757601  0.60690129  0.45389639     0.14400
H1016       H  0.34211022  0.61747062  0.02882323     0.14400
C1017       C  0.34285226  0.62475594  0.44153435     0.36100
C1018       C  0.43079983  0.60544031  0.03877400     0.36000
N1019       N  0.32530683  0.62906643  0.42164472    -0.44300
N1020       N  0.45010586  0.60295273  0.05716993    -0.44300
C1021       C  0.32371131  0.97342071  0.34486510    -0.00700
C1022       C  0.34538578  0.98857942  0.30962146    -0.12600
C1023       C  0.36369977  0.52297892  0.30550783     0.01500
C1024       C  0.36127556  0.54358817  0.33770969    -0.00800
C1025       C  0.33782922  0.52837663  0.37097951    -0.12500
C1026       C  0.31882418  0.99386887  0.37448971     0.01400
H1027       H  0.34842801  0.97342458  0.28526221     0.14400
H1028       H  0.33517362  0.54353053  0.39574866     0.14400
C1029       C  0.29560694  0.98103952  0.41005154     0.36100
C1030       C  0.38476432  0.53614827  0.26776269     0.36000
N1031       N  0.27695996  0.97178651  0.43863108    -0.44300
N1032       N  0.40190147  0.54645260  0.23767251    -0.44300
C1033       C  0.10916295  0.73162493  0.45696012    -0.00700
C1034       C  0.07803493  0.70913203  0.47339211    -0.12600
C1035       C  0.07286653  0.70533056  0.01876334     0.01500
C1036       C  0.09860186  0.72603677  0.04852471    -0.00800
C1037       C  0.12856384  0.75150680  0.03188458    -0.12500
C1038       C  0.13417065  0.75413214  0.48630590     0.01400
H1039       H  0.05885697  0.69164820  0.45084332     0.14400
H1040       H  0.14869206  0.76689102  0.05451834     0.14400
C1041       C  0.16636961  0.77820080  0.47038395     0.36100
C1042       C  0.04299170  0.67647517  0.03316823     0.36000
N1043       N  0.19213649  0.79748584  0.45742881    -0.44300
N1044       N  0.01919174  0.65270023  0.04374518    -0.44300
C1045       C  0.04204767  0.67717487  0.34871159    -0.00700
C1046       C  0.03110984  0.69257248  0.32206872    -0.12600
C1047       C  0.49755911  0.67913850  0.31533610     0.01500
C1048       C  0.47405919  0.64891846  0.33523291    -0.00800
C1049       C  0.48588987  0.63378964  0.36163825    -0.12500
C1050       C  0.01909155  0.64775920  0.36922279     0.01400
H1051       H  0.04899555  0.71539678  0.30653444     0.14400
H1052       H  0.46878069  0.61169938  0.37917256     0.14400
C1053       C  0.02865162  0.63266768  0.40104029     0.36100
C1054       C  0.48942320  0.69838923  0.28956217     0.36000
N1055       N  0.03627797  0.62080784  0.42687264    -0.44300
N1056       N  0.48411414  0.71473161  0.26866451    -0.44300
C1057       C  0.32367721  0.96030673  0.16235322    -0.00700
C1058       C  0.34959179  0.97737661  0.13324750    -0.12600
C1059       C  0.36350577  0.51078135  0.12650996     0.01500
C1060       C  0.35211471  0.52857981  0.15039138    -0.00800
C1061       C  0.32699384  0.51122937  0.18162572    -0.12500
C1062       C  0.31260387  0.97741783  0.18721758     0.01400
H1063       H  0.35793295  0.96403736  0.11379404     0.14400
H1064       H  0.31767453  0.52307285  0.20184504     0.14400
C1065       C  0.28695379  0.96114003  0.21929734     0.36100
C1066       C  0.38820991  0.52486994  0.09284224     0.36000
N1067       N  0.26674302  0.94891669  0.24566935    -0.44300
N1068       N  0.40737152  0.53403947  0.06496984    -0.44300
C1069       C  0.27630122  0.90184186  0.04969879    -0.00700
C1070       C  0.30358893  0.92768070  0.02886374    -0.12600
C1071       C  0.30385850  0.93065496  0.48325938     0.01500
C1072       C  0.27605214  0.90771151  0.45764397    -0.00800
C1073       C  0.24728869  0.88441825  0.47925883    -0.12500
C1074       C  0.24733734  0.88116534  0.02516287     0.01400
H1075       H  0.32596270  0.94348573  0.04757008     0.14400
H1076       H  0.22603407  0.86649335  0.45986208     0.14400
C1077       C  0.21873453  0.85441305  0.04579267     0.36100
C1078       C  0.33453062  0.95453144  0.46303820     0.36000
N1079       N  0.19595961  0.83302638  0.06271398    -0.44300
N1080       N  0.35923246  0.97357109  0.44710646    -0.44300
C1081       C  0.32736474  0.85890393  0.14616650    -0.00700
C1082       C  0.31257988  0.82556492  0.15615240    -0.12600
C1083       C  0.33007807  0.81014479  0.15511477     0.01500
C1084       C  0.36442003  0.82844461  0.14665041    -0.00800
C1085       C  0.37905711  0.86147520  0.13504744    -0.12500
C1086       C  0.36079316  0.87626797  0.13305259     0.01400
H1087       H  0.28653087  0.81024506  0.16172825     0.14400
H1088       H  0.40426158  0.87525982  0.12420179     0.14400
C1089       C  0.37659693  0.90832143  0.11377426     0.36100
C1090       C  0.31109057  0.77480278  0.16041150     0.36000
N1091       N  0.38959615  0.93377962  0.09762347    -0.44300
N1092       N  0.29612713  0.74660986  0.16527642    -0.44300
C1093       C  0.03901593  0.85580133  0.13484017    -0.00700
C1094       C  0.02482420  0.86751607  0.10671673    -0.12600
C1095       C  0.49076672  0.85261039  0.10393033     0.01500
C1096       C  0.46969369  0.82518459  0.12977944    -0.00800
C1097       C  0.48363777  0.81197158  0.15568042    -0.12500
C1098       C  0.01797564  0.82705346  0.15847655     0.01400
H1099       H  0.04061234  0.88915339  0.08758706     0.14400
H1100       H  0.46775643  0.79068140  0.17529982     0.14400
C1101       C  0.03093134  0.81366678  0.18767341     0.36100
C1102       C  0.47811086  0.86589992  0.07392987     0.36000
N1103       N  0.04103184  0.80264717  0.21111782    -0.44300
N1104       N  0.46803022  0.87657337  0.04984053    -0.44300
C1105       C  0.11691222  0.87245360  0.45824489    -0.00700
C1106       C  0.14787222  0.89415464  0.47715097    -0.12600
C1107       C  0.15192556  0.89641549  0.02313335     0.01500
C1108       C  0.12430329  0.87760050  0.05028611    -0.00800
C1109       C  0.09607464  0.85063640  0.03089589    -0.12500
C1110       C  0.09301210  0.84692962  0.48496521     0.01400
H1111       H  0.16836054  0.91060630  0.45672047     0.14400
H1112       H  0.07555741  0.83369643  0.05109140     0.14400
C1113       C  0.06562900  0.81663131  0.46628154     0.36100
C1114       C  0.18424027  0.91848321  0.04171553     0.36000
N1115       N  0.04389323  0.79223544  0.45126039    -0.44300
N1116       N  0.21018548  0.93587159  0.05659980    -0.44300
C1117       C  0.17699700  0.63801991  0.35729328    -0.00700
C1118       C  0.14779474  0.62514843  0.33326687    -0.12600
C1119       C  0.13277095  0.64314220  0.32944064     0.01500
C1120       C  0.14540208  0.67375629  0.35324791    -0.00800
C1121       C  0.17628959  0.68787269  0.37318856    -0.12500
C1122       C  0.19220811  0.67090639  0.37492254     0.01400
H1123       H  0.13742865  0.60179928  0.31528470     0.14400
H1124       H  0.18807085  0.71247622  0.38818634     0.14400
C1125       C  0.22453884  0.68842042  0.39482957     0.36100
C1126       C  0.10717356  0.63103789  0.29673136     0.36000
N1127       N  0.25042585  0.70246010  0.41065388    -0.44300
N1128       N  0.08666425  0.62114470  0.27036743    -0.44300
C1129       C  0.18268731  0.53250071  0.34936703    -0.00700
C1130       C  0.18918668  0.51879728  0.38502341    -0.12600
C1131       C  0.17178493  0.98447723  0.39066048     0.01500
C1132       C  0.14965716  0.96259111  0.35772164    -0.00800
C1133       C  0.14626086  0.97645600  0.31943789    -0.12500
C1134       C  0.16131957  0.51071919  0.31587944     0.01400
H1135       H  0.20555913  0.53498691  0.41115483     0.14400
H1136       H  0.12963571  0.96025685  0.29342327     0.14400
C1137       C  0.15276723  0.52260965  0.27880575     0.36100
C1138       C  0.17387902  0.97357569  0.43337731     0.36000
N1139       N  0.14504691  0.53201760  0.24979036    -0.44300
N1140       N  0.17611866  0.96706520  0.46895331    -0.44300
C1141       C  0.38910096  0.77208461  0.44844113    -0.00700
C1142       C  0.35859172  0.75295742  0.46893997    -0.12600
C1143       C  0.35659551  0.74810809  0.01431610     0.01500
C1144       C  0.38555186  0.76296121  0.03998349    -0.00800
C1145       C  0.41582162  0.77757383  0.01852428    -0.12500
C1146       C  0.41786261  0.78228363  0.47292982     0.01400
H1147       H  0.33630193  0.74409294  0.45008296     0.14400
H1148       H  0.43819402  0.78874378  0.03791822     0.14400
C1149       C  0.45002193  0.80047456  0.45370530     0.36100
C1150       C  0.32467863  0.73111183  0.03458906     0.36000
N1151       N  0.47636257  0.81485421  0.43989187    -0.44300
N1152       N  0.29912359  0.71775951  0.05086707    -0.44300
C1153       C  0.46564009  0.83406138  0.34774310    -0.00700
C1154       C  0.47840012  0.81550369  0.33243228    -0.12600
C1155       C  0.01186464  0.82787852  0.33565740     0.01500
C1156       C  0.03419246  0.86123987  0.35000152    -0.00800
C1157       C  0.02095574  0.87939586  0.36614584    -0.12500
C1158       C  0.48732057  0.86615643  0.36592378     0.01400
H1159       H  0.46190268  0.79041749  0.31999379     0.14400
H1160       H  0.03669793  0.90342309  0.38203304     0.14400
C1161       C  0.47600661  0.88495579  0.38897330     0.36100
C1162       C  0.02131493  0.80431944  0.32811307     0.36000
N1163       N  0.46710732  0.90009801  0.40756280    -0.44300
N1164       N  0.02859006  0.78519325  0.32217238    -0.44300
C1165       C  0.35917092  0.83240692  0.34563619    -0.00700
C1166       C  0.32823503  0.81821988  0.36529881    -0.12600
C1167       C  0.31195261  0.83486997  0.36835368     0.01500
C1168       C  0.32690258  0.86739520  0.35247587    -0.00800
C1169       C  0.35558432  0.87963175  0.32753002    -0.12500
C1170       C  0.37083837  0.86183765  0.32222276     0.01400
H1171       H  0.31685147  0.79399228  0.37927565     0.14400
H1172       H  0.36527876  0.90215267  0.30980568     0.14400
C1173       C  0.39500092  0.87219868  0.28787112     0.36100
C1174       C  0.27960785  0.81744945  0.38761103     0.36000
N1175       N  0.41399901  0.88060126  0.25978067    -0.44300
N1176       N  0.25366428  0.80333628  0.40277759    -0.44300
C1177       C  0.17367498  0.53712151  0.15789698    -0.00700
C1178       C  0.19117424  0.52367871  0.17266511    -0.12600
C1179       C  0.17727153  0.98944310  0.17118070     0.01500
C1180       C  0.14405677  0.96754611  0.15733626    -0.00800
C1181       C  0.12768214  0.98170123  0.14003304    -0.12500
C1182       C  0.14193503  0.51569487  0.13995313     0.01400
H1183       H  0.21615275  0.54006841  0.18444881     0.14400
H1184       H  0.10406914  0.96633073  0.12395753     0.14400
C1185       C  0.12406543  0.52767166  0.11816566     0.36100
C1186       C  0.19889259  0.97839046  0.18087247     0.36000
N1187       N  0.10979622  0.53730095  0.10078409    -0.44300
N1188       N  0.21663673  0.97000703  0.18858799    -0.44300
C1189       C  0.22484096  0.59626182  0.45778034    -0.00700
C1190       C  0.25322637  0.61613445  0.48345756    -0.12600
C1191       C  0.25127307  0.61704523  0.02972092     0.01500
C1192       C  0.22052319  0.59829927  0.05016627    -0.00800
C1193       C  0.19320694  0.57531139  0.02496842    -0.12500
C1194       C  0.19501256  0.57404188  0.47917452     0.01400
H1195       H  0.27609800  0.63336504  0.46746653     0.14400
H1196       H  0.16962728  0.56052423  0.04085993     0.14400
C1197       C  0.16467596  0.55328372  0.45501770     0.36100
C1198       C  0.28038615  0.63925043  0.05529616     0.36000
N1199       N  0.14018093  0.53679092  0.43608429    -0.44300
N1200       N  0.30372489  0.65674077  0.07602203    -0.44300
C1201       C  0.16656548  0.63813049  0.15290587    -0.00700
C1202       C  0.13289126  0.61918033  0.16372287    -0.12600
C1203       C  0.11246735  0.63156148  0.16126454     0.01500
C1204       C  0.12564578  0.66459129  0.14905524    -0.00800
C1205       C  0.15930404  0.68340322  0.13835295    -0.12500
C1206       C  0.17925944  0.67064465  0.13930276     0.01400
H1207       H  0.12106291  0.59364208  0.17182123     0.14400
H1208       H  0.17013340  0.70853607  0.12779905     0.14400
C1209       C  0.21217103  0.69099602  0.12280199     0.36100
C1210       C  0.07816642  0.60827127  0.16904566     0.36000
N1211       N  0.23823103  0.70712409  0.10852932    -0.44300
N1212       N  0.05091115  0.58841288  0.17543451    -0.44300
O1213       O  0.11580314  0.78232087  0.70186385    -0.82300
C1214       C  0.23068780  0.86885739  0.80641025     0.97000
O1215       O  0.22359983  0.84384640  0.78261023    -0.71500
O1216       O  0.16954680  0.79026988  0.80301813    -0.75000
Al1217     Al  0.18688474  0.81130841  0.74975327     1.49000
C1218       C  0.13948841  0.77084488  0.80999178     0.92300
O1219       O  0.12212067  0.83118876  0.80680227    -0.81300
O1220       O  0.16641626  0.87607911  0.70106456    -0.74800
Al1221     Al  0.12188658  0.80847410  0.75460328     1.90100
O1222       O  0.16021906  0.88174429  0.78925720    -0.73900
O1223       O  0.22295873  0.88067264  0.71282722    -0.73700
O1224       O  0.21421809  0.88194957  0.80332358    -0.79400
O1225       O  0.20680457  0.82949121  0.69584886    -0.77600
O1226       O  0.16571744  0.83198519  0.75201217    -1.13700
O1227       O  0.15485224  0.77412504  0.71700800    -0.72900
C1228       C  0.12890229  0.76579366  0.69663815     0.97800
C1229       C  0.13550414  0.86204008  0.81135651     0.94200
Al1230     Al  0.18878814  0.87621492  0.75154254     1.55600
O1231       O  0.11836338  0.77438833  0.79130828    -0.77600
C1232       C  0.22623320  0.85987818  0.69076217     0.98300
C1233       C  0.13580397  0.86267678  0.69765354     0.93200
O1234       O  0.11612595  0.83739056  0.71893421    -0.82900
C1235       C  0.18752904  0.62274758  0.64954323     0.86000
C1236       C  0.19561505  0.61975065  0.60117136    -0.54300
C1237       C  0.21438509  0.60667135  0.59496115     0.08900
C1238       C  0.22307000  0.59687029  0.63758221     0.19800
C1239       C  0.17200221  0.58767109  0.66695052    -0.55000
C1240       C  0.18951207  0.57349789  0.65836683     0.09000
C1241       C  0.22094928  0.64205005  0.67320970    -0.54500
C1242       C  0.23941543  0.62841285  0.66730503     0.09500
H1243       H  0.18632587  0.62649363  0.57379655     0.14700
H1244       H  0.23804013  0.58590517  0.63222479    -0.00200
H1245       H  0.14858128  0.57374869  0.68307223     0.14400
H1246       H  0.22861659  0.66361848  0.69454399     0.14200
C1247       C  0.37757483  0.81479281  0.85130831     0.86000
C1248       C  0.37544721  0.80313114  0.89875746    -0.54300
C1249       C  0.38985238  0.78568502  0.90488933     0.08900
C1250       C  0.40601082  0.78203121  0.86321046     0.19800
C1251       C  0.41450068  0.83459491  0.84223950    -0.55000
C1252       C  0.42953305  0.81788926  0.84892891     0.09000
C1253       C  0.36363434  0.78335945  0.82250909    -0.54500
C1254       C  0.37838245  0.76621298  0.82853573     0.09500
H1255       H  0.36358605  0.80829788  0.92551536     0.14100
H1256       H  0.41758789  0.76779296  0.86848104    -0.00200
H1257       H  0.42839772  0.86023864  0.83395080     0.14400
H1258       H  0.34353752  0.77519779  0.79936348     0.14200
C1259       C  0.19426903  0.61918302  0.86050483     0.86000
C1260       C  0.22526872  0.63616889  0.83386434    -0.54300
C1261       C  0.24471580  0.62396585  0.83734136     0.08900
C1262       C  0.23082253  0.59459785  0.86901833     0.19800
C1263       C  0.17698872  0.58209994  0.84592387    -0.55000
C1264       C  0.19616815  0.56900226  0.85077937     0.09000
C1265       C  0.20502440  0.61986888  0.90762398    -0.54500
C1266       C  0.22356615  0.60679638  0.91288816     0.09500
H1267       H  0.23067602  0.65611221  0.81232212     0.14100
H1268       H  0.24675209  0.58473887  0.87281531    -0.00200
H1269       H  0.15124837  0.56681288  0.83719451     0.14400
H1270       H  0.19578163  0.62717485  0.93556859     0.14200
C1271       C  0.07070469  0.87586305  0.85790664     0.86000
C1272       C  0.07648220  0.86859922  0.90410150    -0.54300
C1273       C  0.10823577  0.87936515  0.91424965     0.08900
C1274       C  0.13238182  0.89940452  0.87658268     0.19800
C1275       C  0.09295862  0.91343698  0.85510483    -0.55000
C1276       C  0.12528282  0.92639697  0.86456707     0.09000
C1277       C  0.08696156  0.86339780  0.82663802    -0.54500
C1278       C  0.11850662  0.87450884  0.83713581     0.09500
H1279       H  0.05642562  0.85642958  0.92717794     0.14100
H1280       H  0.15855216  0.90914555  0.88338902    -0.00200
H1281       H  0.08414880  0.92869387  0.84457510     0.14400
H1282       H  0.07531471  0.84805513  0.79729114     0.14200
C1283       C  0.12772237  0.93009636  0.65083158     0.86000
C1284       C  0.13598671  0.92205237  0.60533471    -0.54300
C1285       C  0.12230200  0.88921881  0.59567110     0.08900
C1286       C  0.10056692  0.86676837  0.63317048     0.19800
C1287       C  0.08998131  0.90975464  0.65234056    -0.55000
C1288       C  0.07542412  0.87688361  0.64218341     0.09000
C1289       C  0.13698970  0.91283281  0.68334767    -0.54500
C1290       C  0.12390164  0.88020375  0.67352438     0.09500
H1291       H  0.15013164  0.94111027  0.58169290     0.14100
H1292       H  0.08937368  0.84001397  0.62597651    -0.00200
H1293       H  0.07550957  0.92031491  0.66022619     0.14400
H1294       H  0.15256954  0.92495638  0.71203691     0.14200
C1295       C  0.38287660  0.81085509  0.63993291     0.86000
C1296       C  0.37449900  0.78544408  0.67448660    -0.54300
C1297       C  0.38448346  0.76436023  0.66529355     0.08900
C1298       C  0.40682045  0.77385123  0.62427637     0.19800
C1299       C  0.42072570  0.83044131  0.63953311    -0.55000
C1300       C  0.43350989  0.81112026  0.63155852     0.09000
C1301       C  0.37272184  0.79209628  0.59561660    -0.54500
C1302       C  0.38541141  0.77327064  0.58654285     0.09500
H1303       H  0.36054097  0.78359846  0.70377428     0.14100
H1304       H  0.41657695  0.75789436  0.61745930    -0.00200
H1305       H  0.43615170  0.85682679  0.64617587     0.14400
H1306       H  0.35903653  0.79619031  0.57133023     0.14200
C1307       C  0.30655239  0.87423165  0.64461187     0.86000
C1308       C  0.29897447  0.87794719  0.59705519    -0.54300
C1309       C  0.28164814  0.89262941  0.59334395     0.08900
C1310       C  0.27328457  0.90254208  0.63776637     0.19800
C1311       C  0.32348552  0.90909124  0.66577048    -0.55000
C1312       C  0.30658032  0.92414756  0.66117512     0.09000
C1313       C  0.27282626  0.85589708  0.66732412    -0.54500
C1314       C  0.25556970  0.87074774  0.66382344     0.09500
H1315       H  0.30758435  0.87056173  0.56850597     0.14100
H1316       H  0.25943509  0.91477337  0.63470063    -0.00200
H1317       H  0.34805826  0.92203757  0.67969720     0.14400
H1318       H  0.26433568  0.83505512  0.68837467     0.14200
C1319       C  0.12831131  0.69297808  0.85878725     0.86000
C1320       C  0.13045183  0.70642868  0.90634190    -0.54300
C1321       C  0.11660395  0.72466423  0.91211524     0.08900
C1322       C  0.10142117  0.72774632  0.86986751     0.19800
C1323       C  0.09136800  0.67381419  0.84887795    -0.55000
C1324       C  0.07754021  0.69193809  0.85416381     0.09000
C1325       C  0.14337498  0.72367213  0.83058815    -0.54500
C1326       C  0.12929194  0.74175131  0.83628093     0.09500
H1327       H  0.13986813  0.69996915  0.93386479     0.14100
H1328       H  0.08992300  0.74232327  0.87463736    -0.00200
H1329       H  0.07623251  0.64762718  0.84174027     0.14400
H1330       H  0.16309298  0.73017379  0.80742525     0.14200
C1331       C  0.43702853  0.63386393  0.83855207     0.86000
C1332       C  0.42980291  0.63939347  0.88586645    -0.54300
C1333       C  0.39759945  0.62301152  0.89694045     0.08900
C1334       C  0.37448832  0.60488051  0.85699315     0.19800
C1335       C  0.41680844  0.59606018  0.83035234    -0.55000
C1336       C  0.38405483  0.58057728  0.83943901     0.09000
C1337       C  0.41929618  0.64566320  0.81116193    -0.54500
C1338       C  0.38699378  0.63141341  0.82144561     0.09500
H1339       H  0.44925759  0.65319179  0.91020057     0.14100
H1340       H  0.34808741  0.59313695  0.86453329    -0.00200
H1341       H  0.42823239  0.58268613  0.82049336     0.14400
H1342       H  0.42977678  0.66254683  0.78456442     0.14200
C1343       C  0.30985918  0.88644814  0.85789845     0.86000
C1344       C  0.27876679  0.86955161  0.83071554    -0.54300
C1345       C  0.25994262  0.88256937  0.83532484     0.08900
C1346       C  0.27436427  0.91242476  0.86865354     0.19800
C1347       C  0.32768893  0.92317626  0.84540377    -0.55000
C1348       C  0.30930586  0.93717018  0.85134156     0.09000
C1349       C  0.29934731  0.88679834  0.90526459    -0.54500
C1350       C  0.28096770  0.90016898  0.91155867     0.09500
H1351       H  0.27272694  0.84893979  0.80821868     0.14100
H1352       H  0.25860283  0.92250995  0.87295608    -0.00200
H1353       H  0.35310555  0.93760486  0.83544011     0.14400
H1354       H  0.30757183  0.87883424  0.93253384     0.14200
C1355       C  0.36645952  0.56514233  0.64189991     0.86000
C1356       C  0.36221578  0.57098561  0.59400300    -0.54300
C1357       C  0.37671025  0.60332774  0.58402372     0.08900
C1358       C  0.39376336  0.62759885  0.62396783     0.19800
C1359       C  0.40354345  0.58659569  0.65076838    -0.55000
C1360       C  0.41823251  0.61941153  0.64218645     0.09000
C1361       C  0.35269025  0.58271709  0.66835312    -0.54500
C1362       C  0.36685751  0.61509920  0.65905978     0.09500
H1363       H  0.35087022  0.55124292  0.56897455     0.14100
H1364       H  0.40434187  0.65386622  0.61678770    -0.00200
H1365       H  0.41721584  0.57622891  0.66200939     0.14400
H1366       H  0.33422420  0.57192267  0.69356996     0.14200
C1367       C  0.10737380  0.68269380  0.64543274     0.86000
C1368       C  0.12450342  0.71411300  0.67441525    -0.54300
C1369       C  0.11390580  0.73496590  0.66941594     0.08900
C1370       C  0.08568600  0.72196435  0.63577755     0.19800
C1371       C  0.07068090  0.66689251  0.65665489    -0.55000
C1372       C  0.05923674  0.68741423  0.65211140     0.09000
C1373       C  0.10983950  0.69443097  0.59853006    -0.54500
C1374       C  0.09873236  0.71472152  0.59315109     0.09500
H1375       H  0.14379199  0.71926228  0.69756689     0.14100
H1376       H  0.07710530  0.73895061  0.63145749    -0.00200
H1377       H  0.05418541  0.64163896  0.66490957     0.14400
H1378       H  0.11943932  0.68694094  0.57125322     0.14200
O1379       O  0.38185770  0.71644178  0.69223890    -0.82300
C1380       C  0.27333186  0.63717298  0.80758752     0.97000
O1381       O  0.27978668  0.66161238  0.78513191    -0.71500
O1382       O  0.33617925  0.71489718  0.80120280    -0.75000
Al1383     Al  0.31449599  0.69194198  0.74914344     1.49000
C1384       C  0.36663137  0.73486774  0.80405932     0.92300
O1385       O  0.38098023  0.67285646  0.79466297    -0.81300
O1386       O  0.32803796  0.62307161  0.69263634    -0.74800
Al1387     Al  0.37842776  0.69286703  0.74397027     1.90100
O1388       O  0.34155826  0.62154670  0.77922532    -0.73900
O1389       O  0.27392586  0.62069864  0.71319839    -0.73700
O1390       O  0.28934163  0.62365281  0.80177770    -0.79400
O1391       O  0.28986849  0.67135408  0.69719188    -0.77600
O1392       O  0.33451772  0.67029734  0.74644304    -1.13700
O1393       O  0.34529162  0.72717401  0.71428018    -0.72900
C1394       C  0.36996008  0.73411724  0.69119062     0.97800
C1395       C  0.36796470  0.64227250  0.79885975     0.94200
Al1396     Al  0.31044145  0.62607155  0.74662374     1.55600
O1397       O  0.38603859  0.72993553  0.78190498    -0.77600
C1398       C  0.26979593  0.64070078  0.69269451     0.98300
C1399       C  0.35801471  0.63511302  0.68545284     0.93200
O1400       O  0.37996769  0.66096980  0.70575352    -0.82900
C1401       C  0.45436710  0.64325039  0.65030474    -0.00700
C1402       C  0.46913144  0.63730579  0.68543410    -0.12600
C1403       C  0.00320076  0.65277868  0.68863388     0.01500
C1404       C  0.02370220  0.67571413  0.65686709    -0.00800
C1405       C  0.00928255  0.68545083  0.62609271    -0.12500
C1406       C  0.47507709  0.66925549  0.62198391     0.01400
H1407       H  0.45389987  0.61923718  0.70960450     0.14400
H1408       H  0.02458073  0.70396074  0.60251682     0.14400
C1409       C  0.46268293  0.67843206  0.58600888     0.36100
C1410       C  0.01614662  0.64395331  0.72441617     0.36000
N1411       N  0.45343595  0.68630550  0.55687170    -0.44300
N1412       N  0.02629666  0.63639935  0.75281204    -0.44300
C1413       C  0.38918728  0.61647970  0.94449957    -0.00700
C1414       C  0.40933005  0.61025254  0.96979570    -0.12600
C1415       C  0.40734498  0.60923695  0.51532321     0.01500
C1416       C  0.38319552  0.61207385  0.53718349    -0.00800
C1417       C  0.36155817  0.61650409  0.51227523    -0.12500
C1418       C  0.36468109  0.61915908  0.96601250     0.01400
H1419       H  0.42757593  0.60690112  0.95389629     0.14400
H1420       H  0.34210991  0.61747036  0.52882301     0.14400
C1421       C  0.34285241  0.62475611  0.94153448     0.36100
C1422       C  0.43079967  0.60544027  0.53877410     0.36000
N1423       N  0.32530718  0.62906678  0.92164482    -0.44300
N1424       N  0.45010567  0.60295260  0.55716999    -0.44300
C1425       C  0.32371125  0.97342062  0.84486476    -0.00700
C1426       C  0.34538564  0.98857935  0.80962105    -0.12600
C1427       C  0.36369944  0.52297852  0.80550794     0.01500
C1428       C  0.36127526  0.54358782  0.83770978    -0.00800
C1429       C  0.33782927  0.52837631  0.87097999    -0.12500
C1430       C  0.31882421  0.99386872  0.87448959     0.01400
H1431       H  0.34842773  0.97342457  0.78526166     0.14400
H1432       H  0.33517382  0.54353027  0.89574928     0.14400
C1433       C  0.29560691  0.98103933  0.91005136     0.36100
C1434       C  0.38476382  0.53614777  0.76776263     0.36000
N1435       N  0.27695981  0.97178619  0.93863079    -0.44300
N1436       N  0.40190075  0.54645197  0.73767223    -0.44300
C1437       C  0.10916202  0.73162407  0.95695982    -0.00700
C1438       C  0.07803431  0.70913072  0.97339221    -0.12600
C1439       C  0.07286679  0.70533168  0.51876316     0.01500
C1440       C  0.09860211  0.72603722  0.54852488    -0.00800
C1441       C  0.12856448  0.75150687  0.53188515    -0.12500
C1442       C  0.13416969  0.75413185  0.98630524     0.01400
H1443       H  0.05885641  0.69164647  0.95084369     0.14400
H1444       H  0.14869269  0.76689057  0.55451919     0.14400
C1445       C  0.16636837  0.77820089  0.97038282     0.36100
C1446       C  0.04299143  0.67647662  0.53316761     0.36000
N1447       N  0.19213496  0.79748624  0.95742715    -0.44300
N1448       N  0.01919109  0.65270194  0.54374408    -0.44300
C1449       C  0.04204725  0.67717428  0.84871058    -0.00700
C1450       C  0.03110938  0.69257207  0.82206813    -0.12600
C1451       C  0.49755864  0.67913826  0.81533583     0.01500
C1452       C  0.47405874  0.64891809  0.83523243    -0.00800
C1453       C  0.48588943  0.63378912  0.86163742    -0.12500
C1454       C  0.01909114  0.64775853  0.86922171     0.01400
H1455       H  0.04899516  0.71539657  0.80653397     0.14400
H1456       H  0.46878022  0.61169874  0.87917171     0.14400
C1457       C  0.02865122  0.63266686  0.90103898     0.36100
C1458       C  0.48942269  0.69838935  0.78956276     0.36000
N1459       N  0.03627755  0.62080694  0.92687124    -0.44300
N1460       N  0.48411356  0.71473201  0.76866583    -0.44300
C1461       C  0.32367692  0.96030624  0.66235353    -0.00700
C1462       C  0.34959149  0.97737607  0.63324782    -0.12600
C1463       C  0.36350552  0.51078122  0.62650959     0.01500
C1464       C  0.35211449  0.52857965  0.65039106    -0.00800
C1465       C  0.32699363  0.51122924  0.68162546    -0.12500
C1466       C  0.31260345  0.97741738  0.68721760     0.01400
H1467       H  0.35793273  0.96403676  0.61379445     0.14400
H1468       H  0.31767444  0.52307259  0.70184469     0.14400
C1469       C  0.28695330  0.96113966  0.71929718     0.36100
C1470       C  0.38820957  0.52486983  0.59284173     0.36000
N1471       N  0.26674240  0.94891631  0.74566908    -0.44300
N1472       N  0.40737105  0.53403933  0.56496921    -0.44300
C1473       C  0.27630086  0.90184136  0.54969909    -0.00700
C1474       C  0.30358846  0.92768042  0.52886415    -0.12600
C1475       C  0.30385902  0.93065519  0.98325896     0.01500
C1476       C  0.27605260  0.90771178  0.95764361    -0.00800
C1477       C  0.24728904  0.88441884  0.97925851    -0.12500
C1478       C  0.24733706  0.88116462  0.52516316     0.01400
H1479       H  0.32596208  0.94348550  0.54757044     0.14400
H1480       H  0.22603434  0.86649407  0.95986176     0.14400
C1481       C  0.21873453  0.85441202  0.54579290     0.36100
C1482       C  0.33453111  0.95453156  0.96303771     0.36000
N1483       N  0.19595989  0.83302502  0.56271431    -0.44300
N1484       N  0.35923301  0.97357122  0.94710601    -0.44300
C1485       C  0.32736458  0.85890355  0.64616651    -0.00700
C1486       C  0.31257979  0.82556454  0.65615229    -0.12600
C1487       C  0.33007805  0.81014448  0.65511459     0.01500
C1488       C  0.36442006  0.82844443  0.64665051    -0.00800
C1489       C  0.37905711  0.86147504  0.63504770    -0.12500
C1490       C  0.36079302  0.87626766  0.63305269     0.01400
H1491       H  0.28653075  0.81024464  0.66172815     0.14400
H1492       H  0.40426154  0.87525973  0.62420229     0.14400
C1493       C  0.37659677  0.90832112  0.61377446     0.36100
C1494       C  0.31109064  0.77480248  0.66041113     0.36000
N1495       N  0.38959603  0.93377934  0.59762374    -0.44300
N1496       N  0.29612739  0.74660954  0.66527602    -0.44300
C1497       C  0.03901604  0.85580119  0.63484035    -0.00700
C1498       C  0.02482431  0.86751558  0.60671629    -0.12600
C1499       C  0.49076682  0.85260989  0.60392996     0.01500
C1500       C  0.46969383  0.82518443  0.62977956    -0.00800
C1501       C  0.48363792  0.81197175  0.65568120    -0.12500
C1502       C  0.01797581  0.82705373  0.65847743     0.01400
H1503       H  0.04061237  0.88915250  0.58758621     0.14400
H1504       H  0.46775666  0.79068191  0.67530095     0.14400
C1505       C  0.03093154  0.81366752  0.68767504     0.36100
C1506       C  0.47811089  0.86589912  0.57392912     0.36000
N1507       N  0.04103209  0.80264831  0.71112009    -0.44300
N1508       N  0.46803009  0.87657225  0.54983951    -0.44300
C1509       C  0.11691217  0.87245296  0.95824473    -0.00700
C1510       C  0.14787214  0.89415404  0.97715086    -0.12600
C1511       C  0.15192571  0.89641617  0.52313345     0.01500
C1512       C  0.12430353  0.87760115  0.55028631    -0.00800
C1513       C  0.09607475  0.85063713  0.53089617    -0.12500
C1514       C  0.09301211  0.84692885  0.98496494     0.01400
H1515       H  0.16836047  0.91060578  0.95672043     0.14400
H1516       H  0.07555767  0.83369729  0.55109167     0.14400
C1517       C  0.06562914  0.81663051  0.96628105     0.36100
C1518       C  0.18424044  0.91848409  0.54171545     0.36000
N1519       N  0.04389351  0.79223467  0.95125975    -0.44300
N1520       N  0.21018569  0.93587270  0.55659946    -0.44300
C1521       C  0.17699674  0.63801966  0.85729377    -0.00700
C1522       C  0.14779470  0.62514822  0.83326679    -0.12600
C1523       C  0.13277086  0.64314193  0.82944043     0.01500
C1524       C  0.14540170  0.67375586  0.85324793    -0.00800
C1525       C  0.17628901  0.68787221  0.87318913    -0.12500
C1526       C  0.19220756  0.67090599  0.87492342     0.01400
H1527       H  0.13742892  0.60179932  0.81528436     0.14400
H1528       H  0.18807011  0.71247571  0.88818719     0.14400
C1529       C  0.22453803  0.68841995  0.89483120     0.36100
C1530       C  0.10717370  0.63103768  0.79673075     0.36000
N1531       N  0.25042481  0.70245957  0.91065617    -0.44300
N1532       N  0.08666466  0.62114459  0.77036647    -0.44300
C1533       C  0.18268741  0.53250076  0.84936717    -0.00700
C1534       C  0.18918672  0.51879735  0.88502362    -0.12600
C1535       C  0.17178436  0.98447676  0.89066079     0.01500
C1536       C  0.14965668  0.96259062  0.85772192    -0.00800
C1537       C  0.14626027  0.97645546  0.81943822    -0.12500
C1538       C  0.16131981  0.51071923  0.81587948     0.01400
H1539       H  0.20555919  0.53498703  0.91115516     0.14400
H1540       H  0.12963506  0.96025623  0.79342358     0.14400
C1541       C  0.15276747  0.52260964  0.77880574     0.36100
C1542       C  0.17387834  0.97357518  0.93337765     0.36000
N1543       N  0.14504709  0.53201749  0.74979032    -0.44300
N1544       N  0.17611769  0.96706442  0.96895359    -0.44300
C1545       C  0.38910031  0.77208401  0.94844125    -0.00700
C1546       C  0.35859105  0.75295697  0.96894019    -0.12600
C1547       C  0.35659609  0.74810850  0.51431584     0.01500
C1548       C  0.38555240  0.76296156  0.53998331    -0.00800
C1549       C  0.41582219  0.77757426  0.51852416    -0.12500
C1550       C  0.41786193  0.78228292  0.97292990     0.01400
H1551       H  0.33630128  0.74409257  0.95008329     0.14400
H1552       H  0.43819464  0.78874418  0.53791824     0.14400
C1553       C  0.45002128  0.80047355  0.95370532     0.36100
C1554       C  0.32467920  0.73111236  0.53458872     0.36000
N1555       N  0.47636188  0.81485287  0.93989188    -0.44300
N1556       N  0.29912414  0.71776014  0.55086671    -0.44300
C1557       C  0.46563987  0.83406090  0.84774372    -0.00700
C1558       C  0.47839983  0.81550316  0.83243289    -0.12600
C1559       C  0.01186440  0.82787802  0.83565796     0.01500
C1560       C  0.03419221  0.86123939  0.85000192    -0.00800
C1561       C  0.02095551  0.87939536  0.86614644    -0.12500
C1562       C  0.48732036  0.86615588  0.86592455     0.01400
H1563       H  0.46190235  0.79041694  0.81999446     0.14400
H1564       H  0.03669768  0.90342251  0.88203377     0.14400
C1565       C  0.47600642  0.88495506  0.88897454     0.36100
C1566       C  0.02131467  0.80431890  0.82811369     0.36000
N1567       N  0.46710713  0.90009716  0.90756440    -0.44300
N1568       N  0.02858978  0.78519269  0.82217302    -0.44300
C1569       C  0.35917091  0.83240678  0.84563617    -0.00700
C1570       C  0.32823495  0.81821977  0.86529851    -0.12600
C1571       C  0.31195264  0.83486996  0.86835328     0.01500
C1572       C  0.32690273  0.86739521  0.85247541    -0.00800
C1573       C  0.35558454  0.87963168  0.82752975    -0.12500
C1574       C  0.37083851  0.86183750  0.82222264     0.01400
H1575       H  0.31685126  0.79399212  0.87927529     0.14400
H1576       H  0.36527915  0.90215272  0.80980531     0.14400
C1577       C  0.39500112  0.87219837  0.78787117     0.36100
C1578       C  0.27960782  0.81744956  0.88761058     0.36000
N1579       N  0.41399934  0.88060092  0.75978084    -0.44300
N1580       N  0.25366420  0.80333665  0.90277691    -0.44300
C1581       C  0.17367445  0.53712125  0.65789710    -0.00700
C1582       C  0.19117390  0.52367858  0.67266510    -0.12600
C1583       C  0.17727139  0.98944313  0.67118203     0.01500
C1584       C  0.14405669  0.96754614  0.65733728    -0.00800
C1585       C  0.12768210  0.98170126  0.64003394    -0.12500
C1586       C  0.14193439  0.51569450  0.63995372     0.01400
H1587       H  0.21615231  0.54006825  0.68444853     0.14400
H1588       H  0.10406920  0.96633083  0.62395839     0.14400
C1589       C  0.12406451  0.52767108  0.61816651     0.36100
C1590       C  0.19889232  0.97839046  0.68087440     0.36000
N1591       N  0.10979503  0.53730012  0.60078510    -0.44300
N1592       N  0.21663635  0.97000698  0.68859057    -0.44300
C1593       C  0.22484080  0.59626140  0.95778045    -0.00700
C1594       C  0.25322631  0.61613389  0.98345752    -0.12600
C1595       C  0.25127303  0.61704573  0.52972095     0.01500
C1596       C  0.22052311  0.59829954  0.55016618    -0.00800
C1597       C  0.19320699  0.57531163  0.52496822    -0.12500
C1598       C  0.19501243  0.57404154  0.97917471     0.01400
H1599       H  0.27609787  0.63336430  0.96746641     0.14400
H1600       H  0.16962729  0.56052432  0.54085970     0.14400
C1601       C  0.16467578  0.55328344  0.95501796     0.36100
C1602       C  0.28038597  0.63925102  0.55529634     0.36000
N1603       N  0.14018072  0.53679078  0.93608459    -0.44300
N1604       N  0.30372460  0.65674149  0.57602244    -0.44300
C1605       C  0.16656504  0.63813032  0.65290575    -0.00700
C1606       C  0.13289071  0.61917998  0.66372220    -0.12600
C1607       C  0.11246680  0.63156116  0.66126386     0.01500
C1608       C  0.12564531  0.66459108  0.64905507    -0.00800
C1609       C  0.15930363  0.68340308  0.63835308    -0.12500
C1610       C  0.17925908  0.67064457  0.63930294     0.01400
H1611       H  0.12106234  0.59364177  0.67181998     0.14400
H1612       H  0.17013305  0.70853602  0.62779933     0.14400
C1613       C  0.21217072  0.69099603  0.62280243     0.36100
C1614       C  0.07816579  0.60827082  0.66904437     0.36000
N1615       N  0.23823080  0.70712428  0.60852990    -0.44300
N1616       N  0.05091051  0.58841231  0.67543279    -0.44300
O1617       O  0.61580330  0.28232109  0.20186360    -0.82300
C1618       C  0.73068775  0.36885765  0.30641031     0.97000
O1619       O  0.72359982  0.34384668  0.28261023    -0.71500
O1620       O  0.66954690  0.29027003  0.30301792    -0.75000
Al1621     Al  0.68688484  0.31130870  0.24975317     1.49000
C1622       C  0.63948851  0.27084513  0.30999172     0.92300
O1623       O  0.62212056  0.33118893  0.30680201    -0.81300
O1624       O  0.66641620  0.37607930  0.20106454    -0.74800
Al1625     Al  0.62188661  0.30847428  0.25460307     1.90100
O1626       O  0.66021901  0.38174449  0.28925722    -0.73900
O1627       O  0.72295877  0.38067297  0.21282722    -0.73700
O1628       O  0.71421808  0.38194985  0.30332359    -0.79400
O1629       O  0.70680474  0.32949158  0.19584885    -0.77600
O1630       O  0.66571746  0.33198544  0.25201206    -1.13700
O1631       O  0.65485242  0.27412533  0.21700788    -0.72900
C1632       C  0.62890252  0.26579393  0.19663796     0.97800
C1633       C  0.63550408  0.36204024  0.31135646     0.94200
Al1634     Al  0.68878811  0.37621517  0.25154251     1.55600
O1635       O  0.61836350  0.27438862  0.29130823    -0.77600
C1636       C  0.72623337  0.35987855  0.19076225     0.98300
C1637       C  0.63580389  0.36267689  0.19765337     0.93200
O1638       O  0.61612586  0.33739063  0.21893393    -0.82900
C1639       C  0.68752910  0.12274765  0.14954317     0.86000
C1640       C  0.69561515  0.11975078  0.10117126    -0.54300
C1641       C  0.71438521  0.10667152  0.09496102     0.08900
C1642       C  0.72307018  0.09687049  0.13758205     0.19800
C1643       C  0.67200233  0.08767110  0.16695027    -0.55000
C1644       C  0.68951225  0.07349799  0.15836662     0.09000
C1645       C  0.72094933  0.14205011  0.17320968    -0.54500
C1646       C  0.73941555  0.12841303  0.16730493     0.09500
H1647       H  0.68632585  0.12649365  0.07379643     0.14700
H1648       H  0.73804035  0.08590543  0.13222461    -0.00200
H1649       H  0.64858113  0.07374845  0.18307169     0.14400
H1650       H  0.72861661  0.16361854  0.19454409     0.14200
C1651       C  0.87757472  0.31479302  0.35130865     0.86000
C1652       C  0.87544724  0.30313132  0.39875774    -0.54300
C1653       C  0.88985253  0.28568530  0.40488947     0.08900
C1654       C  0.90601091  0.28203158  0.36321049     0.19800
C1655       C  0.91450054  0.33459521  0.34223975    -0.55000
C1656       C  0.92953301  0.31788964  0.34892895     0.09000
C1657       C  0.86363425  0.28335966  0.32250941    -0.54500
C1658       C  0.87838247  0.26621327  0.32853588     0.09500
H1659       H  0.86358605  0.30829798  0.42551581     0.14100
H1660       H  0.91758810  0.26779335  0.36848095    -0.00200
H1661       H  0.92839748  0.36023896  0.33395113     0.14400
H1662       H  0.84353738  0.27519793  0.29936383     0.14200
C1663       C  0.69426904  0.11918313  0.36050463     0.86000
C1664       C  0.72526870  0.13616901  0.33386403    -0.54300
C1665       C  0.74471587  0.12396607  0.33734112     0.08900
C1666       C  0.73082268  0.09459813  0.36901819     0.19800
C1667       C  0.67698878  0.08210002  0.34592375    -0.55000
C1668       C  0.69616831  0.06900244  0.35077925     0.09000
C1669       C  0.70502443  0.11986905  0.40762378    -0.54500
C1670       C  0.72356624  0.10679664  0.41288802     0.09500
H1671       H  0.73067593  0.15611222  0.31232172     0.14100
H1672       H  0.74675237  0.08473926  0.37281524    -0.00200
H1673       H  0.65124847  0.06681291  0.33719439     0.14400
H1674       H  0.69578154  0.12717495  0.43556843     0.14200
C1675       C  0.57070470  0.37586336  0.35790656     0.86000
C1676       C  0.57648216  0.36859959  0.40410147    -0.54300
C1677       C  0.60823567  0.37936544  0.41424973     0.08900
C1678       C  0.63238179  0.39940473  0.37658273     0.19800
C1679       C  0.59295872  0.41343729  0.35510463    -0.55000
C1680       C  0.62528290  0.42639724  0.36456694     0.09000
C1681       C  0.58696153  0.36339798  0.32663809    -0.54500
C1682       C  0.61850656  0.37450897  0.33713591     0.09500
H1683       H  0.55642552  0.35643001  0.42717787     0.14100
H1684       H  0.65855213  0.40914574  0.38338911    -0.00200
H1685       H  0.58414892  0.42869425  0.34457476     0.14400
H1686       H  0.57531469  0.34805531  0.29729119     0.14200
C1687       C  0.62772254  0.43009646  0.15083102     0.86000
C1688       C  0.63598687  0.42205231  0.10533420    -0.54300
C1689       C  0.62230205  0.38921870  0.09567076     0.08900
C1690       C  0.60056691  0.36676839  0.13317020     0.19800
C1691       C  0.58998148  0.40975483  0.15233997    -0.55000
C1692       C  0.57542418  0.37688377  0.14218298     0.09000
C1693       C  0.63698975  0.41283292  0.18334726    -0.54500
C1694       C  0.62390161  0.38020385  0.17352413     0.09500
H1695       H  0.65013193  0.44111010  0.08169243     0.14100
H1696       H  0.58937364  0.34001403  0.12597635    -0.00200
H1697       H  0.57550979  0.42031523  0.16022548     0.14400
H1698       H  0.65256969  0.42495658  0.21203650     0.14200
C1699       C  0.88287661  0.31085520  0.13993255     0.86000
C1700       C  0.87449919  0.28544436  0.17448638    -0.54300
C1701       C  0.88448367  0.26436053  0.16529343     0.08900
C1702       C  0.90682046  0.27385135  0.12427606     0.19800
C1703       C  0.92072570  0.33044144  0.13953245    -0.55000
C1704       C  0.93350991  0.31112040  0.13155793     0.09000
C1705       C  0.87272165  0.29209620  0.09561638    -0.54500
C1706       C  0.88541120  0.27327054  0.08654265     0.09500
H1707       H  0.86054117  0.28359878  0.20377415     0.14100
H1708       H  0.91657695  0.25789447  0.11745905    -0.00200
H1709       H  0.93615172  0.35682697  0.14617509     0.14400
H1710       H  0.85903623  0.29619012  0.07133007     0.14200
C1711       C  0.80655256  0.37423194  0.14461199     0.86000
C1712       C  0.79897454  0.37794732  0.09705530    -0.54300
C1713       C  0.78164821  0.39262955  0.09334399     0.08900
C1714       C  0.77328476  0.40254239  0.13776638     0.19800
C1715       C  0.82348577  0.40909160  0.16577037    -0.55000
C1716       C  0.80658056  0.42414791  0.16117498     0.09000
C1717       C  0.77282648  0.35589745  0.16732437    -0.54500
C1718       C  0.75556994  0.37074815  0.16382364     0.09500
H1719       H  0.80758443  0.37056181  0.06850612     0.14100
H1720       H  0.75943529  0.41477369  0.13470060    -0.00200
H1721       H  0.84805849  0.42203795  0.17969700     0.14400
H1722       H  0.76433588  0.33505553  0.18837485     0.14200
C1723       C  0.62831142  0.19297841  0.35878761     0.86000
C1724       C  0.63045239  0.20642937  0.40634214    -0.54300
C1725       C  0.61660459  0.22466500  0.41211560     0.08900
C1726       C  0.60142149  0.22774685  0.36986799     0.19800
C1727       C  0.59136798  0.17381450  0.34887897    -0.55000
C1728       C  0.57754032  0.19193854  0.35416482     0.09000
C1729       C  0.64337484  0.22367222  0.33058808    -0.54500
C1730       C  0.62929200  0.24175157  0.33628097     0.09500
H1731       H  0.63986879  0.19996986  0.43386499     0.14100
H1732       H  0.58992345  0.24232393  0.37463791    -0.00200
H1733       H  0.57623243  0.14762757  0.34174166     0.14400
H1734       H  0.66309265  0.23017367  0.30742484     0.14200
C1735       C  0.93702863  0.13386417  0.33855220     0.86000
C1736       C  0.92980288  0.13939362  0.38586658    -0.54300
C1737       C  0.89759938  0.12301163  0.39694045     0.08900
C1738       C  0.87448835  0.10488072  0.35699307     0.19800
C1739       C  0.91680855  0.09606044  0.33035236    -0.55000
C1740       C  0.88405493  0.08057754  0.33943895     0.09000
C1741       C  0.91929632  0.14566351  0.31116208    -0.54500
C1742       C  0.88699392  0.13141371  0.32144565     0.09500
H1743       H  0.94925746  0.15319185  0.41020074     0.14100
H1744       H  0.84808748  0.09313718  0.36453311    -0.00200
H1745       H  0.92823253  0.08268639  0.32049345     0.14400
H1746       H  0.92977699  0.16254729  0.28456472     0.14200
C1747       C  0.80985903  0.38644830  0.35789868     0.86000
C1748       C  0.77876667  0.36955178  0.33071575    -0.54300
C1749       C  0.75994252  0.38256953  0.33532497     0.08900
C1750       C  0.77436416  0.41242495  0.36865361     0.19800
C1751       C  0.82768885  0.42317641  0.34540397    -0.55000
C1752       C  0.80930578  0.43717034  0.35134162     0.09000
C1753       C  0.79934720  0.38679857  0.40526484    -0.54500
C1754       C  0.78096757  0.40016921  0.41155881     0.09500
H1755       H  0.77272684  0.34893994  0.30821883     0.14100
H1756       H  0.75860270  0.42251008  0.37295607    -0.00200
H1757       H  0.85310545  0.43760497  0.33544043     0.14400
H1758       H  0.80757176  0.37883455  0.43253407     0.14200
C1759       C  0.86645982  0.06514269  0.14190009     0.86000
C1760       C  0.86221606  0.07098588  0.09400315    -0.54300
C1761       C  0.87671046  0.10332799  0.08402376     0.08900
C1762       C  0.89376358  0.12759917  0.12396782     0.19800
C1763       C  0.90354379  0.08659609  0.15076850    -0.55000
C1764       C  0.91823280  0.11941194  0.14218645     0.09000
C1765       C  0.85269058  0.08271745  0.16835328    -0.54500
C1766       C  0.86685778  0.11509954  0.15905985     0.09500
H1767       H  0.85087060  0.05124317  0.06897475     0.14100
H1768       H  0.90434202  0.15386654  0.11678759    -0.00200
H1769       H  0.91721614  0.07622940  0.16200945     0.14400
H1770       H  0.83422457  0.07192302  0.19357028     0.14200
C1771       C  0.60737403  0.18269406  0.14543270     0.86000
C1772       C  0.62450374  0.21411331  0.17441509    -0.54300
C1773       C  0.61390611  0.23496622  0.16941571     0.08900
C1774       C  0.58568633  0.22196466  0.13577734     0.19800
C1775       C  0.57068113  0.16689281  0.15665484    -0.55000
C1776       C  0.55923703  0.18741460  0.15211123     0.09000
C1777       C  0.60983972  0.19443115  0.09852998    -0.54500
C1778       C  0.59873264  0.21472176  0.09315092     0.09500
H1779       H  0.64379231  0.21926260  0.19756661     0.14100
H1780       H  0.57710562  0.23895097  0.13145721    -0.00200
H1781       H  0.55418561  0.14163932  0.16490929     0.14400
H1782       H  0.61943936  0.18694097  0.07125320     0.14200
O1783       O  0.88185793  0.21644213  0.19223894    -0.82300
C1784       C  0.77333197  0.13717326  0.30758729     0.97000
O1785       O  0.77978681  0.16161266  0.28513169    -0.71500
O1786       O  0.83617932  0.21489763  0.30120249    -0.75000
Al1787     Al  0.81449614  0.19194230  0.24914319     1.49000
C1788       C  0.86663145  0.23486810  0.30405929     0.92300
O1789       O  0.88098041  0.17285680  0.29466301    -0.81300
O1790       O  0.82803818  0.12307198  0.19263623    -0.74800
Al1791     Al  0.87842794  0.19286738  0.24397031     1.90100
O1792       O  0.84155846  0.12154705  0.27922530    -0.73900
O1793       O  0.77392604  0.12069893  0.21319833    -0.73700
O1794       O  0.78934178  0.12365312  0.30177755    -0.79400
O1795       O  0.78986870  0.17135433  0.19719158    -0.77600
O1796       O  0.83451790  0.17029768  0.24644301    -1.13700
O1797       O  0.84529178  0.22717432  0.21427997    -0.72900
C1798       C  0.86996031  0.23411758  0.19119055     0.97800
C1799       C  0.86796487  0.14227283  0.29885978     0.94200
Al1800     Al  0.81044165  0.12607188  0.24662366     1.55600
O1801       O  0.88603872  0.22993586  0.28190508    -0.77600
C1802       C  0.76979610  0.14070101  0.19269435     0.98300
C1803       C  0.85801494  0.13511337  0.18545282     0.93200
O1804       O  0.87996789  0.16097014  0.20575356    -0.82900
C1805       C  0.95436742  0.14325079  0.15030466    -0.00700
C1806       C  0.96913180  0.13730629  0.18543405    -0.12600
C1807       C  0.50320111  0.15277923  0.18863384     0.01500
C1808       C  0.52370251  0.17571453  0.15686688    -0.00800
C1809       C  0.50928285  0.18545118  0.12609244    -0.12500
C1810       C  0.97507738  0.16925583  0.12198371     0.01400
H1811       H  0.95390026  0.11923772  0.20960452     0.14400
H1812       H  0.52458102  0.20396102  0.10251645     0.14400
C1813       C  0.96268319  0.17843238  0.08600878     0.36100
C1814       C  0.51614702  0.14395398  0.22441619     0.36000
N1815       N  0.95343614  0.18630585  0.05687164    -0.44300
N1816       N  0.52629714  0.13640016  0.25281213    -0.44300
C1817       C  0.88918709  0.11647960  0.44449950    -0.00700
C1818       C  0.90932979  0.11025233  0.46979558    -0.12600
C1819       C  0.90734513  0.10923710  0.01532320     0.01500
C1820       C  0.88319569  0.11207399  0.03718347    -0.00800
C1821       C  0.86155831  0.11650424  0.01227521    -0.12500
C1822       C  0.86468086  0.11915891  0.46601246     0.01400
H1823       H  0.92757571  0.10690094  0.45389610     0.14400
H1824       H  0.84211018  0.11747056  0.02882293     0.14400
C1825       C  0.84285214  0.12475590  0.44153447     0.36100
C1826       C  0.93079988  0.10544055  0.03877414     0.36000
N1827       N  0.82530679  0.12906643  0.42164485    -0.44300
N1828       N  0.95010591  0.10295296  0.05717005    -0.44300
C1829       C  0.82371123  0.47342078  0.34486468    -0.00700
C1830       C  0.84538576  0.48857951  0.30962109    -0.12600
C1831       C  0.86369964  0.02297881  0.30550798     0.01500
C1832       C  0.86127539  0.04358809  0.33770974    -0.00800
C1833       C  0.83782923  0.02837660  0.37097979    -0.12500
C1834       C  0.81882408  0.49386890  0.37448931     0.01400
H1835       H  0.84842792  0.47342469  0.28526182     0.14400
H1836       H  0.83517368  0.04353052  0.39574892     0.14400
C1837       C  0.79560660  0.48103952  0.41005087     0.36100
C1838       C  0.88476402  0.03614806  0.26776268     0.36000
N1839       N  0.77695939  0.47178648  0.43863015    -0.44300
N1840       N  0.90190097  0.04645231  0.23767228    -0.44300
C1841       C  0.60916258  0.23162467  0.45696023    -0.00700
C1842       C  0.57803471  0.20913145  0.47339231    -0.12600
C1843       C  0.57286670  0.20533104  0.01876310     0.01500
C1844       C  0.59860203  0.22603705  0.04852456    -0.00800
C1845       C  0.62856416  0.25150684  0.03188449    -0.12500
C1846       C  0.63417019  0.25413213  0.48630593     0.01400
H1847       H  0.55885683  0.19164749  0.45084362     0.14400
H1848       H  0.64869243  0.26689086  0.05451829     0.14400
C1849       C  0.66636896  0.27820107  0.47038377     0.36100
C1850       C  0.54299168  0.17647582  0.03316792     0.36000
N1851       N  0.69213562  0.29748631  0.45742822    -0.44300
N1852       N  0.51919161  0.15270100  0.04374483    -0.44300
C1853       C  0.54204731  0.17717474  0.34871162    -0.00700
C1854       C  0.53110949  0.19257243  0.32206884    -0.12600
C1855       C  0.99755883  0.17913844  0.31533609     0.01500
C1856       C  0.97405887  0.14891834  0.33523274    -0.00800
C1857       C  0.98588951  0.13378941  0.36163794    -0.12500
C1858       C  0.51909115  0.14775892  0.36922254     0.01400
H1859       H  0.54899522  0.21539681  0.30653466     0.14400
H1860       H  0.96878029  0.11169908  0.37917215     0.14400
C1861       C  0.52865110  0.13266726  0.40104003     0.36100
C1862       C  0.98942295  0.19838919  0.28956220     0.36000
N1863       N  0.53627731  0.12080737  0.42687247    -0.44300
N1864       N  0.98411396  0.21473162  0.26866450    -0.44300
C1865       C  0.82367716  0.46030658  0.16235353    -0.00700
C1866       C  0.84959170  0.47737643  0.13324781    -0.12600
C1867       C  0.86350588  0.01078160  0.12650984     0.01500
C1868       C  0.85211479  0.02858000  0.15039129    -0.00800
C1869       C  0.82699387  0.01122951  0.18162555    -0.12500
C1870       C  0.81260382  0.47741775  0.18721789     0.01400
H1871       H  0.85793290  0.46403712  0.11379434     0.14400
H1872       H  0.81767458  0.02307293  0.20184487     0.14400
C1873       C  0.78695377  0.46114001  0.21929763     0.36100
C1874       C  0.88821000  0.02487027  0.09284213     0.36000
N1875       N  0.76674302  0.44891667  0.24566972    -0.44300
N1876       N  0.90737150  0.03403973  0.06496961    -0.44300
C1877       C  0.77630106  0.40184158  0.04969910    -0.00700
C1878       C  0.80358884  0.42768031  0.02886403    -0.12600
C1879       C  0.80385856  0.43065550  0.48325914     0.01500
C1880       C  0.77605228  0.40771192  0.45764372    -0.00800
C1881       C  0.74728886  0.38441857  0.47925854    -0.12500
C1882       C  0.74733721  0.38116507  0.02516318     0.01400
H1883       H  0.82596257  0.44348522  0.04757031     0.14400
H1884       H  0.72603433  0.36649369  0.45986181     0.14400
C1885       C  0.71873443  0.35441279  0.04579298     0.36100
C1886       C  0.83453058  0.45453210  0.46303793     0.36000
N1887       N  0.69595954  0.33302611  0.06271433    -0.44300
N1888       N  0.85923237  0.47357186  0.44710611    -0.44300
C1889       C  0.82736478  0.35890385  0.14616677    -0.00700
C1890       C  0.81257997  0.32556486  0.15615274    -0.12600
C1891       C  0.83007820  0.31014475  0.15511477     0.01500
C1892       C  0.86442013  0.32844459  0.14665028    -0.00800
C1893       C  0.87905716  0.36147517  0.13504740    -0.12500
C1894       C  0.86079315  0.37626787  0.13305266     0.01400
H1895       H  0.78653106  0.31024503  0.16172875     0.14400
H1896       H  0.90426158  0.37525979  0.12420165     0.14400
C1897       C  0.87659682  0.40832124  0.11377416     0.36100
C1898       C  0.81109074  0.27480274  0.16041125     0.36000
N1899       N  0.88959590  0.43377935  0.09762318    -0.44300
N1900       N  0.79612739  0.24660981  0.16527605    -0.44300
C1901       C  0.53901609  0.35580137  0.13483982    -0.00700
C1902       C  0.52482439  0.36751604  0.10671617    -0.12600
C1903       C  0.99076686  0.35261024  0.10392971     0.01500
C1904       C  0.96969385  0.32518455  0.12977893    -0.00800
C1905       C  0.98363796  0.31197165  0.15568010    -0.12500
C1906       C  0.51797579  0.32705358  0.15847629     0.01400
H1907       H  0.54061247  0.38915319  0.08758656     0.14400
H1908       H  0.96775663  0.29068152  0.17529967     0.14400
C1909       C  0.53093145  0.31366707  0.18767346     0.36100
C1910       C  0.97811097  0.36589972  0.07392917     0.36000
N1911       N  0.54103195  0.30264763  0.21111816    -0.44300
N1912       N  0.96803021  0.37657307  0.04983991    -0.44300
C1913       C  0.61691195  0.37245323  0.45824490    -0.00700
C1914       C  0.64787191  0.39415417  0.47715104    -0.12600
C1915       C  0.65192587  0.39641584  0.02313321     0.01500
C1916       C  0.62430364  0.37760086  0.05028606    -0.00800
C1917       C  0.59607495  0.35063682  0.03089587    -0.12500
C1918       C  0.59301176  0.34692924  0.48496522     0.01400
H1919       H  0.66836037  0.41060589  0.45672047     0.14400
H1920       H  0.57555775  0.33369690  0.05109141     0.14400
C1921       C  0.56562867  0.31663097  0.46628144     0.36100
C1922       C  0.68424059  0.41848356  0.04171530     0.36000
N1923       N  0.54389294  0.29223518  0.45126009    -0.44300
N1924       N  0.71018579  0.43587204  0.05659946    -0.44300
C1925       C  0.67699677  0.13801981  0.35729359    -0.00700
C1926       C  0.64779449  0.12514826  0.33326721    -0.12600
C1927       C  0.63277060  0.14314194  0.32944105     0.01500
C1928       C  0.64540172  0.17375607  0.35324818    -0.00800
C1929       C  0.67628924  0.18787251  0.37318881    -0.12500
C1930       C  0.69220779  0.17090628  0.37492293     0.01400
H1931       H  0.63742841  0.10179911  0.31528509     0.14400
H1932       H  0.68807049  0.21247613  0.38818667     0.14400
C1933       C  0.72453835  0.18842024  0.39483045     0.36100
C1934       C  0.60717294  0.13103731  0.29673212     0.36000
N1935       N  0.75042521  0.20245988  0.41065523    -0.44300
N1936       N  0.58666341  0.12114377  0.27036850    -0.44300
C1937       C  0.68268767  0.03250094  0.34936687    -0.00700
C1938       C  0.68918704  0.01879752  0.38502327    -0.12600
C1939       C  0.67178468  0.48447698  0.39066054     0.01500
C1940       C  0.64965687  0.46259088  0.35772177    -0.00800
C1941       C  0.64626047  0.47645577  0.31943811    -0.12500
C1942       C  0.66131998  0.01071943  0.31587924     0.01400
H1943       H  0.70555948  0.03498714  0.41115472     0.14400
H1944       H  0.62963520  0.46025661  0.29342352     0.14400
C1945       C  0.65276771  0.02260988  0.27880549     0.36100
C1946       C  0.67387875  0.47357540  0.43337735     0.36000
N1947       N  0.64504748  0.03201785  0.24979000    -0.44300
N1948       N  0.67611828  0.46706473  0.46895327    -0.44300
C1949       C  0.88910059  0.27208427  0.44844129    -0.00700
C1950       C  0.85859135  0.25295714  0.46894020    -0.12600
C1951       C  0.85659572  0.24810829  0.01431568     0.01500
C1952       C  0.88555204  0.26296134  0.03998312    -0.00800
C1953       C  0.91582182  0.27757387  0.01852395    -0.12500
C1954       C  0.91786224  0.28228332  0.47292994     0.01400
H1955       H  0.83630155  0.24409261  0.45008324     0.14400
H1956       H  0.93819421  0.28874368  0.03791793     0.14400
C1957       C  0.95002158  0.30047414  0.45370537     0.36100
C1958       C  0.82467881  0.23111204  0.03458860     0.36000
N1959       N  0.97636219  0.31485370  0.43989191    -0.44300
N1960       N  0.79912380  0.21775975  0.05086668    -0.44300
C1961       C  0.96563982  0.33406132  0.34774355    -0.00700
C1962       C  0.97839978  0.31550362  0.33243263    -0.12600
C1963       C  0.51186436  0.32787842  0.33565775     0.01500
C1964       C  0.53419223  0.36123975  0.35000185    -0.00800
C1965       C  0.52095558  0.37939574  0.36614640    -0.12500
C1966       C  0.98732039  0.36615631  0.36592444     0.01400
H1967       H  0.96190221  0.29041731  0.31999408     0.14400
H1968       H  0.53669784  0.40342296  0.38203377     0.14400
C1969       C  0.97600655  0.38495563  0.38897431     0.36100
C1970       C  0.52131453  0.30431924  0.32811332     0.36000
N1971       N  0.96710756  0.40009799  0.40756411    -0.44300
N1972       N  0.52858957  0.28519301  0.32217243    -0.44300
C1973       C  0.85917082  0.33240704  0.34563657    -0.00700
C1974       C  0.82823496  0.31822012  0.36529915    -0.12600
C1975       C  0.81195256  0.33487020  0.36835371     0.01500
C1976       C  0.82690258  0.36739540  0.35247567    -0.00800
C1977       C  0.85558428  0.37963181  0.32752986    -0.12500
C1978       C  0.87083829  0.36183767  0.32222279     0.01400
H1979       H  0.81685137  0.29399258  0.37927616     0.14400
H1980       H  0.86527881  0.40215283  0.30980526     0.14400
C1981       C  0.89500075  0.37219839  0.28787114     0.36100
C1982       C  0.77960778  0.31744976  0.38761104     0.36000
N1983       N  0.91399877  0.38060057  0.25978059    -0.44300
N1984       N  0.75366421  0.30333673  0.40277759    -0.44300
C1985       C  0.67367469  0.03712134  0.15789658    -0.00700
C1986       C  0.69117411  0.02367862  0.17266450    -0.12600
C1987       C  0.67727167  0.48944322  0.17118134     0.01500
C1988       C  0.64405695  0.46754626  0.15733660    -0.00800
C1989       C  0.62768243  0.48170144  0.14003320    -0.12500
C1990       C  0.64193469  0.01569464  0.13995297     0.01400
H1991       H  0.71615252  0.04006824  0.18444793     0.14400
H1992       H  0.60406952  0.46633102  0.12395759     0.14400
C1993       C  0.62406501  0.02767132  0.11816552     0.36100
C1994       C  0.69889258  0.47839048  0.18087346     0.36000
N1995       N  0.60979570  0.03730044  0.10078386    -0.44300
N1996       N  0.71663652  0.47000683  0.18858930    -0.44300
C1997       C  0.72484090  0.09626167  0.45778034    -0.00700
C1998       C  0.75322630  0.11613427  0.48345753    -0.12600
C1999       C  0.75127294  0.11704536  0.02972075     0.01500
C2000       C  0.72052302  0.09829948  0.05016606    -0.00800
C2001       C  0.69320679  0.07531165  0.02496819    -0.12500
C2002       C  0.69501250  0.07404164  0.47917452     0.01400
H2003       H  0.77609791  0.13336501  0.46746648     0.14400
H2004       H  0.66962705  0.06052451  0.04085975     0.14400
C2005       C  0.66467591  0.05328348  0.45501768     0.36100
C2006       C  0.78038598  0.13925048  0.05529606     0.36000
N2007       N  0.64018088  0.03679067  0.43608429    -0.44300
N2008       N  0.80372466  0.15674081  0.07602211    -0.44300
C2009       C  0.66656518  0.13813044  0.15290580    -0.00700
C2010       C  0.63289103  0.11918041  0.16372322    -0.12600
C2011       C  0.61246711  0.13156154  0.16126487     0.01500
C2012       C  0.62564548  0.16459125  0.14905516    -0.00800
C2013       C  0.65930373  0.18340313  0.13835261    -0.12500
C2014       C  0.67925914  0.17064456  0.13930249     0.01400
H2015       H  0.62106272  0.09364222  0.17182209     0.14400
H2016       H  0.67013303  0.20853583  0.12779859     0.14400
C2017       C  0.71217080  0.19099596  0.12280177     0.36100
C2018       C  0.57816622  0.10827146  0.16904669     0.36000
N2019       N  0.73823087  0.20712408  0.10852930    -0.44300
N2020       N  0.55091104  0.08841322  0.17543613    -0.44300
O2021       O  0.61580335  0.28232098  0.70186378    -0.82300
C2022       C  0.73068802  0.36885759  0.80640999     0.97000
O2023       O  0.72360008  0.34384664  0.78260987    -0.71500
O2024       O  0.66954714  0.29027008  0.80301790    -0.75000
Al2025     Al  0.68688499  0.31130864  0.74975300     1.49000
C2026       C  0.63948875  0.27084515  0.80999168     0.92300
O2027       O  0.62212084  0.33118899  0.80680205    -0.81300
O2028       O  0.66641629  0.37607922  0.70106440    -0.74800
Al2029     Al  0.62188679  0.30847426  0.75460315     1.90100
O2030       O  0.66021931  0.38174452  0.78925711    -0.73900
O2031       O  0.72295888  0.38067286  0.71282687    -0.73700
O2032       O  0.71421836  0.38194982  0.80332328    -0.79400
O2033       O  0.70680474  0.32949143  0.69584854    -0.77600
O2034       O  0.66571764  0.33198540  0.75201195    -1.13700
O2035       O  0.65485250  0.27412523  0.71700788    -0.72900
C2036       C  0.62890250  0.26579375  0.69663814     0.97800
C2037       C  0.63550438  0.36204031  0.81135641     0.94200
Al2038     Al  0.68878831  0.37621513  0.75154230     1.55600
O2039       O  0.61836372  0.27438861  0.79130822    -0.77600
C2040       C  0.72623337  0.35987840  0.69076184     0.98300
C2041       C  0.63580397  0.36267680  0.69765341     0.93200
O2042       O  0.61612601  0.33739057  0.71893407    -0.82900
C2043       C  0.68752932  0.12274764  0.64954313     0.86000
C2044       C  0.69561516  0.11975044  0.60117125    -0.54300
C2045       C  0.71438515  0.10667108  0.59496113     0.08900
C2046       C  0.72307021  0.09687026  0.63758227     0.19800
C2047       C  0.67200257  0.08767127  0.66695079    -0.55000
C2048       C  0.68951236  0.07349800  0.65836716     0.09000
C2049       C  0.72094964  0.14205020  0.67320937    -0.54500
C2050       C  0.73941575  0.12841297  0.66730479     0.09500
H2051       H  0.68632591  0.12649329  0.57379634     0.14700
H2052       H  0.73804032  0.08590509  0.63222495    -0.00200
H2053       H  0.64858164  0.07374895  0.68307269     0.14400
H2054       H  0.72861701  0.16361872  0.69454366     0.14200
C2055       C  0.87757490  0.31479271  0.85130777     0.86000
C2056       C  0.87544751  0.30313128  0.89875698    -0.54300
C2057       C  0.88985268  0.28568520  0.90488899     0.08900
C2058       C  0.90601100  0.28203122  0.86321009     0.19800
C2059       C  0.91450075  0.33459479  0.84223866    -0.55000
C2060       C  0.92953317  0.31788917  0.84892826     0.09000
C2061       C  0.86363434  0.28335921  0.82250883    -0.54500
C2062       C  0.87838250  0.26621280  0.82853555     0.09500
H2063       H  0.86358631  0.30829812  0.92551503     0.14100
H2064       H  0.91758812  0.26779296  0.86848075    -0.00200
H2065       H  0.92839767  0.36023831  0.83394975     0.14400
H2066       H  0.84353739  0.27519737  0.79936323     0.14200
C2067       C  0.69426898  0.11918284  0.86050439     0.86000
C2068       C  0.72526859  0.13616847  0.83386371    -0.54300
C2069       C  0.74471566  0.12396543  0.83734094     0.08900
C2070       C  0.73082235  0.09459756  0.86901815     0.19800
C2071       C  0.67698852  0.08209969  0.84592378    -0.55000
C2072       C  0.69616787  0.06900194  0.85077935     0.09000
C2073       C  0.70502443  0.11986890  0.90762353    -0.54500
C2074       C  0.72356611  0.10679636  0.91288787     0.09500
H2075       H  0.73067586  0.15611164  0.81232127     0.14100
H2076       H  0.74675190  0.08473856  0.87281531    -0.00200
H2077       H  0.65124809  0.06681264  0.83719449     0.14400
H2078       H  0.69578170  0.12717502  0.93556810     0.14200
C2079       C  0.57070495  0.37586334  0.85790650     0.86000
C2080       C  0.57648245  0.36859953  0.90410137    -0.54300
C2081       C  0.60823600  0.37936545  0.91424957     0.08900
C2082       C  0.63238208  0.39940480  0.87658261     0.19800
C2083       C  0.59295894  0.41343729  0.85510465    -0.55000
C2084       C  0.62528313  0.42639729  0.86456696     0.09000
C2085       C  0.58696185  0.36339806  0.82663798    -0.54500
C2086       C  0.61850688  0.37450909  0.83713578     0.09500
H2087       H  0.55642579  0.35642985  0.92717784     0.14100
H2088       H  0.65855243  0.40914584  0.88338900    -0.00200
H2089       H  0.58414913  0.42869424  0.84457480     0.14400
H2090       H  0.57531502  0.34805539  0.79729109     0.14200
C2091       C  0.62772225  0.43009627  0.65083151     0.86000
C2092       C  0.63598644  0.42205219  0.60533456    -0.54300
C2093       C  0.62230169  0.38921860  0.59567109     0.08900
C2094       C  0.60056674  0.36676825  0.63317058     0.19800
C2095       C  0.58998121  0.40975456  0.65234079    -0.55000
C2096       C  0.57542397  0.37688353  0.64218367     0.09000
C2097       C  0.63698971  0.41283280  0.68334755    -0.54500
C2098       C  0.62390160  0.38020373  0.67352435     0.09500
H2099       H  0.65013132  0.44110999  0.58169271     0.14100
H2100       H  0.58937350  0.34001390  0.62597663    -0.00200
H2101       H  0.57550949  0.42031488  0.66022659     0.14400
H2102       H  0.65256973  0.42495646  0.71203664     0.14200
C2103       C  0.88287645  0.31085504  0.63993318     0.86000
C2104       C  0.87449880  0.28544399  0.67448679    -0.54300
C2105       C  0.88448333  0.26436020  0.66529374     0.08900
C2106       C  0.90682031  0.27385122  0.62427655     0.19800
C2107       C  0.92072553  0.33044125  0.63953345    -0.55000
C2108       C  0.93350974  0.31112021  0.63155883     0.09000
C2109       C  0.87272172  0.29209631  0.59561681    -0.54500
C2110       C  0.88541127  0.27327066  0.58654306     0.09500
H2111       H  0.86054066  0.28359829  0.70377449     0.14100
H2112       H  0.91657683  0.25789436  0.61745938    -0.00200
H2113       H  0.93615155  0.35682672  0.64617631     0.14400
H2114       H  0.85903647  0.29619034  0.57133052     0.14200
C2115       C  0.80655255  0.37423188  0.64461166     0.86000
C2116       C  0.79897471  0.37794744  0.59705494    -0.54300
C2117       C  0.78164836  0.39262964  0.59334364     0.08900
C2118       C  0.77328470  0.40254227  0.63776603     0.19800
C2119       C  0.82348564  0.40909148  0.66577027    -0.55000
C2120       C  0.80658041  0.42414776  0.66117481     0.09000
C2121       C  0.77282641  0.35589730  0.66732380    -0.54500
C2122       C  0.75556985  0.37074792  0.66382310     0.09500
H2123       H  0.80758469  0.37056201  0.56850574     0.14100
H2124       H  0.75943520  0.41477352  0.63470026    -0.00200
H2125       H  0.84805834  0.42203785  0.67969704     0.14400
H2126       H  0.76433578  0.33505525  0.68837440     0.14200
C2127       C  0.62831161  0.19297828  0.85878700     0.86000
C2128       C  0.63045220  0.20642890  0.90634167    -0.54300
C2129       C  0.61660429  0.22466442  0.91211509     0.08900
C2130       C  0.60142147  0.22774652  0.86986742     0.19800
C2131       C  0.59136827  0.17381439  0.84887779    -0.55000
C2132       C  0.57754048  0.19193828  0.85416374     0.09000
C2133       C  0.64337523  0.22367233  0.83058792    -0.54500
C2134       C  0.62929224  0.24175155  0.83628081     0.09500
H2135       H  0.63986858  0.19996941  0.93386448     0.14100
H2136       H  0.58992330  0.24232347  0.87463734    -0.00200
H2137       H  0.57623278  0.14762736  0.84174003     0.14400
H2138       H  0.66309316  0.23017397  0.80742500     0.14200
C2139       C  0.93702873  0.13386396  0.83855212     0.86000
C2140       C  0.92980311  0.13939368  0.88586642    -0.54300
C2141       C  0.89759965  0.12301175  0.89694043     0.08900
C2142       C  0.87448853  0.10488063  0.85699319     0.19800
C2143       C  0.91680866  0.09606021  0.83035266    -0.55000
C2144       C  0.88405504  0.08057737  0.83943923     0.09000
C2145       C  0.91929634  0.14566308  0.81116173    -0.54500
C2146       C  0.88699396  0.13141338  0.82144551     0.09500
H2147       H  0.94925779  0.15319205  0.91020050     0.14100
H2148       H  0.84808761  0.09313710  0.86453334    -0.00200
H2149       H  0.92823260  0.08268610  0.82049381     0.14400
H2150       H  0.92977688  0.16254650  0.78456411     0.14200
C2151       C  0.80985913  0.38644790  0.85789865     0.86000
C2152       C  0.77876684  0.36955154  0.83071552    -0.54300
C2153       C  0.75994271  0.38256934  0.83532483     0.08900
C2154       C  0.77436426  0.41242458  0.86865381     0.19800
C2155       C  0.82768900  0.42317609  0.84540428    -0.55000
C2156       C  0.80930594  0.43717002  0.85134205     0.09000
C2157       C  0.79934714  0.38679789  0.90526478    -0.54500
C2158       C  0.78096754  0.40016856  0.91155889     0.09500
H2159       H  0.77272710  0.34893988  0.80821846     0.14100
H2160       H  0.75860290  0.42250977  0.87295641    -0.00200
H2161       H  0.85310562  0.43760469  0.83544086     0.14400
H2162       H  0.80757165  0.37883376  0.93253391     0.14200
C2163       C  0.86645946  0.06514209  0.64189984     0.86000
C2164       C  0.86221569  0.07098533  0.59400294    -0.54300
C2165       C  0.87671021  0.10332748  0.58402364     0.08900
C2166       C  0.89376341  0.12759861  0.62396771     0.19800
C2167       C  0.90354342  0.08659536  0.65076821    -0.55000
C2168       C  0.91823253  0.11941122  0.64218629     0.09000
C2169       C  0.85269031  0.08271692  0.66835312    -0.54500
C2170       C  0.86685763  0.11509903  0.65905969     0.09500
H2171       H  0.85087010  0.05124266  0.56897458     0.14100
H2172       H  0.90434194  0.15386598  0.61678756    -0.00200
H2173       H  0.91721577  0.07622855  0.66200907     0.14400
H2174       H  0.83422436  0.07192260  0.69357000     0.14200
C2175       C  0.60737405  0.18269385  0.64543288     0.86000
C2176       C  0.62450369  0.21411310  0.67441530    -0.54300
C2177       C  0.61390597  0.23496593  0.66941607     0.08900
C2178       C  0.58568608  0.22196425  0.63577778     0.19800
C2179       C  0.57068114  0.16689246  0.65665517    -0.55000
C2180       C  0.55923688  0.18741411  0.65211165     0.09000
C2181       C  0.60983962  0.19443095  0.59853020    -0.54500
C2182       C  0.59873242  0.21472146  0.59315129     0.09500
H2183       H  0.64379240  0.21926248  0.69756681     0.14100
H2184       H  0.57710530  0.23895049  0.63145776    -0.00200
H2185       H  0.55418582  0.14163904  0.66490992     0.14400
H2186       H  0.61943934  0.18694092  0.57125340     0.14200
O2187       O  0.88185760  0.21644167  0.69223866    -0.82300
C2188       C  0.77333184  0.13717262  0.80758722     0.97000
O2189       O  0.77978674  0.16161210  0.78513173    -0.71500
O2190       O  0.83617936  0.21489688  0.80120289    -0.75000
Al2191     Al  0.81449611  0.19194184  0.74914350     1.49000
C2192       C  0.86663149  0.23486756  0.80405924     0.92300
O2193       O  0.88098047  0.17285638  0.79466261    -0.81300
O2194       O  0.82803809  0.12307149  0.69263610    -0.74800
Al2195     Al  0.87842786  0.19286695  0.74396997     1.90100
O2196       O  0.84155842  0.12154658  0.77922521    -0.73900
O2197       O  0.77392606  0.12069860  0.71319818    -0.73700
O2198       O  0.78934165  0.12365250  0.80177745    -0.79400
O2199       O  0.78986870  0.17135411  0.69719191    -0.77600
O2200       O  0.83451784  0.17029720  0.74644292    -1.13700
O2201       O  0.84529172  0.22717402  0.71428050    -0.72900
C2202       C  0.86996008  0.23411724  0.69119074     0.97800
C2203       C  0.86796488  0.14227243  0.79885957     0.94200
Al2204     Al  0.81044159  0.12607140  0.74662354     1.55600
O2205       O  0.88603871  0.22993545  0.78190474    -0.77600
C2206       C  0.76979616  0.14070082  0.69269439     0.98300
C2207       C  0.85801483  0.13511290  0.68545261     0.93200
O2208       O  0.87996781  0.16096974  0.70575317    -0.82900
C2209       C  0.95436714  0.14324998  0.65030458    -0.00700
C2210       C  0.96913146  0.13730533  0.68543389    -0.12600
C2211       C  0.50320076  0.15277825  0.68863387     0.01500
C2212       C  0.52370226  0.17571381  0.65686718    -0.00800
C2213       C  0.50928264  0.18545052  0.62609275    -0.12500
C2214       C  0.97507714  0.16925513  0.62198381     0.01400
H2215       H  0.95389983  0.11923663  0.70960432     0.14400
H2216       H  0.52458085  0.20396044  0.60251690     0.14400
C2217       C  0.96268299  0.17843162  0.58600865     0.36100
C2218       C  0.51614658  0.14395282  0.72441614     0.36000
N2219       N  0.95343598  0.18630497  0.55687139    -0.44300
N2220       N  0.52629664  0.13639886  0.75281199    -0.44300
C2221       C  0.88918747  0.11647995  0.94449953    -0.00700
C2222       C  0.90933022  0.11025281  0.96979574    -0.12600
C2223       C  0.90734476  0.10923656  0.51532302     0.01500
C2224       C  0.88319540  0.11207354  0.53718342    -0.00800
C2225       C  0.86155804  0.11650387  0.51227528    -0.12500
C2226       C  0.86468118  0.11915922  0.96601235     0.01400
H2227       H  0.92757618  0.10690144  0.95389638     0.14400
H2228       H  0.84210988  0.11747023  0.52882317     0.14400
C2229       C  0.84285241  0.12475613  0.94153430     0.36100
C2230       C  0.93079953  0.10543993  0.53877382     0.36000
N2231       N  0.82530705  0.12906675  0.92164479    -0.44300
N2232       N  0.95010559  0.10295234  0.55716963    -0.44300
C2233       C  0.82371140  0.47342046  0.84486524    -0.00700
C2234       C  0.84538571  0.48857916  0.80962148    -0.12600
C2235       C  0.86369960  0.02297874  0.80550785     0.01500
C2236       C  0.86127543  0.04358796  0.83770976    -0.00800
C2237       C  0.83782928  0.02837645  0.87097981    -0.12500
C2238       C  0.81882436  0.49386861  0.87449004     0.01400
H2239       H  0.84842782  0.47342427  0.78526205     0.14400
H2240       H  0.83517384  0.04353029  0.89574903     0.14400
C2241       C  0.79560725  0.48103930  0.91005201     0.36100
C2242       C  0.88476407  0.03614808  0.76776268     0.36000
N2243       N  0.77696039  0.47178641  0.93863175    -0.44300
N2244       N  0.90190113  0.04645246  0.73767242    -0.44300
C2245       C  0.60916240  0.23162429  0.95695969    -0.00700
C2246       C  0.57803456  0.20913116  0.97339195    -0.12600
C2247       C  0.57286672  0.20533109  0.51876338     0.01500
C2248       C  0.59860196  0.22603696  0.54852504    -0.00800
C2249       C  0.62856413  0.25150685  0.53188520    -0.12500
C2250       C  0.63417010  0.25413189  0.98630517     0.01400
H2251       H  0.55885668  0.19164710  0.95084343     0.14400
H2252       H  0.64869235  0.26689082  0.55451920     0.14400
C2253       C  0.66636889  0.27820064  0.97038292     0.36100
C2254       C  0.54299156  0.17647589  0.53316791     0.36000
N2255       N  0.69213564  0.29748578  0.95742743    -0.44300
N2256       N  0.51919131  0.15270112  0.54374446    -0.44300
C2257       C  0.54204747  0.17717444  0.84871062    -0.00700
C2258       C  0.53110957  0.19257215  0.82206804    -0.12600
C2259       C  0.99755881  0.17913828  0.81533574     0.01500
C2260       C  0.97405896  0.14891816  0.83523244    -0.00800
C2261       C  0.98588971  0.13378929  0.86163754    -0.12500
C2262       C  0.51909140  0.14775875  0.86922184     0.01400
H2263       H  0.54899524  0.21539654  0.80653382     0.14400
H2264       H  0.96878059  0.11169905  0.87917197     0.14400
C2265       C  0.52865153  0.13266719  0.90103922     0.36100
C2266       C  0.98942283  0.19838931  0.78956264     0.36000
N2267       N  0.53627803  0.12080744  0.92687153    -0.44300
N2268       N  0.98411377  0.21473204  0.76866569    -0.44300
C2269       C  0.82367696  0.46030643  0.66235323    -0.00700
C2270       C  0.84959150  0.47737629  0.63324747    -0.12600
C2271       C  0.86350545  0.01078097  0.62650976     0.01500
C2272       C  0.85211436  0.02857943  0.65039109    -0.00800
C2273       C  0.82699346  0.01122904  0.68162541    -0.12500
C2274       C  0.81260357  0.47741754  0.68721752     0.01400
H2275       H  0.85793274  0.46403702  0.61379406     0.14400
H2276       H  0.81767414  0.02307247  0.70184458     0.14400
C2277       C  0.78695346  0.46113979  0.71929716     0.36100
C2278       C  0.88820945  0.02486949  0.59284184     0.36000
N2279       N  0.76674256  0.44891649  0.74566911    -0.44300
N2280       N  0.90737086  0.03403886  0.56496922    -0.44300
C2281       C  0.77630106  0.40184162  0.54969879    -0.00700
C2282       C  0.80358855  0.42768085  0.52886389    -0.12600
C2283       C  0.80385898  0.43065468  0.98325922     0.01500
C2284       C  0.77605251  0.40771138  0.95764387    -0.00800
C2285       C  0.74728891  0.38441852  0.97925879    -0.12500
C2286       C  0.74733729  0.38116486  0.52516285     0.01400
H2287       H  0.82596221  0.44348604  0.54757025     0.14400
H2288       H  0.72603421  0.36649378  0.95986208     0.14400
C2289       C  0.71873476  0.35441214  0.54579257     0.36100
C2290       C  0.83453118  0.45453081  0.96303801     0.36000
N2291       N  0.69596014  0.33302514  0.56271389    -0.44300
N2292       N  0.85923318  0.47357025  0.94710634    -0.44300
C2293       C  0.82736471  0.35890375  0.64616648    -0.00700
C2294       C  0.81257975  0.32556465  0.65615200    -0.12600
C2295       C  0.83007794  0.31014452  0.65511445     0.01500
C2296       C  0.86441998  0.32844443  0.64665066    -0.00800
C2297       C  0.87905716  0.36147509  0.63504804    -0.12500
C2298       C  0.86079323  0.37626785  0.63305300     0.01400
H2299       H  0.78653073  0.31024478  0.66172747     0.14400
H2300       H  0.90426174  0.37525982  0.62420278     0.14400
C2301       C  0.87659719  0.40832146  0.61377510     0.36100
C2302       C  0.81109047  0.27480249  0.66041095     0.36000
N2303       N  0.88959657  0.43377979  0.59762474    -0.44300
N2304       N  0.79612727  0.24660957  0.66527595    -0.44300
C2305       C  0.53901590  0.35580112  0.63484059    -0.00700
C2306       C  0.52482419  0.36751569  0.60671680    -0.12600
C2307       C  0.99076663  0.35260999  0.60393053     0.01500
C2308       C  0.96969367  0.32518438  0.62977989    -0.00800
C2309       C  0.98363780  0.31197153  0.65568118    -0.12500
C2310       C  0.51797562  0.32705354  0.65847742     0.01400
H2311       H  0.54061225  0.38915273  0.58758699     0.14400
H2312       H  0.96775653  0.29068151  0.67530073     0.14400
C2313       C  0.53093130  0.31366712  0.68767475     0.36100
C2314       C  0.97811071  0.36589938  0.57392990     0.36000
N2315       N  0.54103175  0.30264762  0.71111941    -0.44300
N2316       N  0.96803001  0.37657273  0.54984049    -0.44300
C2317       C  0.61691243  0.37245331  0.95824465    -0.00700
C2318       C  0.64787237  0.39415439  0.97715076    -0.12600
C2319       C  0.65192538  0.39641569  0.52313348     0.01500
C2320       C  0.62430313  0.37760079  0.55028634    -0.00800
C2321       C  0.59607438  0.35063681  0.53089616    -0.12500
C2322       C  0.59301235  0.34692925  0.98496493     0.01400
H2323       H  0.66836076  0.41060622  0.95672020     0.14400
H2324       H  0.57555713  0.33369691  0.55109176     0.14400
C2325       C  0.56562937  0.31663094  0.96628119     0.36100
C2326       C  0.68424011  0.41848343  0.54171553     0.36000
N2327       N  0.54389369  0.29223501  0.95125998    -0.44300
N2328       N  0.71018539  0.43587195  0.55659949    -0.44300
C2329       C  0.67699688  0.13801964  0.85729324    -0.00700
C2330       C  0.64779479  0.12514828  0.83326645    -0.12600
C2331       C  0.63277110  0.14314211  0.82944006     0.01500
C2332       C  0.64540201  0.17375604  0.85324758    -0.00800
C2333       C  0.67628938  0.18787235  0.87318859    -0.12500
C2334       C  0.69220791  0.17090608  0.87492265     0.01400
H2335       H  0.63742886  0.10179924  0.81528402     0.14400
H2336       H  0.68807055  0.21247585  0.88818658     0.14400
C2337       C  0.72453859  0.18842015  0.89482992     0.36100
C2338       C  0.60717415  0.13103815  0.79673017     0.36000
N2339       N  0.75042550  0.20245996  0.91065447    -0.44300
N2340       N  0.58666528  0.12114528  0.77036570    -0.44300
C2341       C  0.68268704  0.03250041  0.84936715    -0.00700
C2342       C  0.68918639  0.01879703  0.88502360    -0.12600
C2343       C  0.67178475  0.48447708  0.89066077     0.01500
C2344       C  0.64965708  0.46259095  0.85772187    -0.00800
C2345       C  0.64626071  0.47645583  0.81943816    -0.12500
C2346       C  0.66131935  0.01071886  0.81587952     0.01400
H2347       H  0.70555882  0.03498669  0.91115505     0.14400
H2348       H  0.62963556  0.46025670  0.79342359     0.14400
C2349       C  0.65276694  0.02260923  0.77880580     0.36100
C2350       C  0.67387868  0.47357550  0.93337765     0.36000
N2351       N  0.64504650  0.03201702  0.74979034    -0.44300
N2352       N  0.67611816  0.46706487  0.96895361    -0.44300
C2353       C  0.88910058  0.27208420  0.94844090    -0.00700
C2354       C  0.85859131  0.25295713  0.96893978    -0.12600
C2355       C  0.85659579  0.24810842  0.51431613     0.01500
C2356       C  0.88555214  0.26296154  0.53998352    -0.00800
C2357       C  0.91582193  0.27757420  0.51852432    -0.12500
C2358       C  0.91786218  0.28228310  0.97292959     0.01400
H2359       H  0.83630151  0.24409269  0.95008277     0.14400
H2360       H  0.93819433  0.28874417  0.53791829     0.14400
C2361       C  0.95002155  0.30047384  0.95370503     0.36100
C2362       C  0.82467890  0.23111223  0.53458905     0.36000
N2363       N  0.97636214  0.31485329  0.93989157    -0.44300
N2364       N  0.79912383  0.21775987  0.55086706    -0.44300
C2365       C  0.96564005  0.33406092  0.84774309    -0.00700
C2366       C  0.97840014  0.31550322  0.83243255    -0.12600
C2367       C  0.51186467  0.32787815  0.83565769     0.01500
C2368       C  0.53419244  0.36123957  0.85000162    -0.00800
C2369       C  0.52095566  0.37939553  0.86614581    -0.12500
C2370       C  0.98732050  0.36615601  0.86592370     0.01400
H2371       H  0.96190271  0.29041693  0.81999426     0.14400
H2372       H  0.53669781  0.40342277  0.88203300     0.14400
C2373       C  0.97600645  0.38495527  0.88897335     0.36100
C2374       C  0.52131505  0.30431909  0.82811369     0.36000
N2375       N  0.96710711  0.40009737  0.90756302    -0.44300
N2376       N  0.52859035  0.28519300  0.82217335    -0.44300
C2377       C  0.85917094  0.33240667  0.84563559    -0.00700
C2378       C  0.82823496  0.31821952  0.86529800    -0.12600
C2379       C  0.81195259  0.33486968  0.86835298     0.01500
C2380       C  0.82690267  0.36739499  0.85247543    -0.00800
C2381       C  0.85558445  0.37963158  0.82752966    -0.12500
C2382       C  0.87083847  0.36183745  0.82222229     0.01400
H2383       H  0.81685142  0.29399198  0.87927458     0.14400
H2384       H  0.86527900  0.40215264  0.80980543     0.14400
C2385       C  0.89500111  0.37219855  0.78787084     0.36100
C2386       C  0.77960779  0.31744915  0.88761031     0.36000
N2387       N  0.91399934  0.38060118  0.75978051    -0.44300
N2388       N  0.75366421  0.30333615  0.90277684    -0.44300
C2389       C  0.67367463  0.03712137  0.65789750    -0.00700
C2390       C  0.69117396  0.02367864  0.67266571    -0.12600
C2391       C  0.67727133  0.48944306  0.67118142     0.01500
C2392       C  0.64405657  0.46754604  0.65733705    -0.00800
C2393       C  0.62768186  0.48170109  0.64003385    -0.12500
C2394       C  0.64193462  0.01569469  0.63995394     0.01400
H2395       H  0.71615234  0.04006828  0.68444927     0.14400
H2396       H  0.60406889  0.46633063  0.62395851     0.14400
C2397       C  0.62406489  0.02767139  0.61816657     0.36100
C2398       C  0.69889234  0.47839044  0.68087341     0.36000
N2399       N  0.60979558  0.03730057  0.60078508    -0.44300
N2400       N  0.71663641  0.47000695  0.68858925    -0.44300
C2401       C  0.72484070  0.09626150  0.95778025    -0.00700
C2402       C  0.75322620  0.11613400  0.98345735    -0.12600
C2403       C  0.75127303  0.11704540  0.52972091     0.01500
C2404       C  0.72052313  0.09829914  0.55016621    -0.00800
C2405       C  0.69320698  0.07531133  0.52496821    -0.12500
C2406       C  0.69501226  0.07404175  0.97917450     0.01400
H2407       H  0.77609783  0.13336439  0.96746626     0.14400
H2408       H  0.66962720  0.06052401  0.54085972     0.14400
C2409       C  0.66467559  0.05328368  0.95501771     0.36100
C2410       C  0.78038600  0.13925075  0.55529625     0.36000
N2411       N  0.64018054  0.03679104  0.93608428    -0.44300
N2412       N  0.80372463  0.15674118  0.57602230    -0.44300
C2413       C  0.66656532  0.13813037  0.65290560    -0.00700
C2414       C  0.63289096  0.11917997  0.66372189    -0.12600
C2415       C  0.61246703  0.13156111  0.66126358     0.01500
C2416       C  0.62564555  0.16459109  0.64905506    -0.00800
C2417       C  0.65930388  0.18340314  0.63835303    -0.12500
C2418       C  0.67925931  0.17064459  0.63930281     0.01400
H2419       H  0.62106255  0.09364165  0.67181939     0.14400
H2420       H  0.67013325  0.20853602  0.62779942     0.14400
C2421       C  0.71217096  0.19099607  0.62280223     0.36100
C2422       C  0.57816598  0.10827064  0.66904361     0.36000
N2423       N  0.73823098  0.20712423  0.60852965    -0.44300
N2424       N  0.55091063  0.08841201  0.67543152    -0.44300
O2425       O  0.61580343  0.78232106  0.20186371    -0.82300
C2426       C  0.73068800  0.86885779  0.30641004     0.97000
O2427       O  0.72360014  0.84384687  0.28260985    -0.71500
O2428       O  0.66954718  0.79027021  0.30301781    -0.75000
Al2429     Al  0.68688506  0.81130883  0.24975294     1.49000
C2430       C  0.63948879  0.77084530  0.30999168     0.92300
O2431       O  0.62212082  0.83118908  0.30680201    -0.81300
O2432       O  0.66641628  0.87607936  0.20106442    -0.74800
Al2433     Al  0.62188680  0.80847435  0.25460309     1.90100
O2434       O  0.66021918  0.88174464  0.28925706    -0.73900
O2435       O  0.72295887  0.88067305  0.21282696    -0.73700
O2436       O  0.71421829  0.88194995  0.30332335    -0.79400
O2437       O  0.70680481  0.82949167  0.19584849    -0.77600
O2438       O  0.66571764  0.83198553  0.25201192    -1.13700
O2439       O  0.65485265  0.77412540  0.21700773    -0.72900
C2440       C  0.62890267  0.76579393  0.19663795     0.97800
C2441       C  0.63550428  0.86204039  0.31135639     0.94200
Al2442     Al  0.68878826  0.87621526  0.25154233     1.55600
O2443       O  0.61836375  0.77438875  0.29130824    -0.77600
C2444       C  0.72623343  0.85987864  0.19076190     0.98300
C2445       C  0.63580396  0.86267689  0.19765330     0.93200
O2446       O  0.61612598  0.83739063  0.21893391    -0.82900
C2447       C  0.68752946  0.62274774  0.14954330     0.86000
C2448       C  0.69561532  0.61975060  0.10117141    -0.54300
C2449       C  0.71438536  0.60667133  0.09496121     0.08900
C2450       C  0.72307045  0.59687049  0.13758232     0.19800
C2451       C  0.67200275  0.58767132  0.16695080    -0.55000
C2452       C  0.68951259  0.57349813  0.15836710     0.09000
C2453       C  0.72094980  0.64205033  0.17320956    -0.54500
C2454       C  0.73941593  0.62841312  0.16730496     0.09500
H2455       H  0.68632593  0.62649336  0.07379648     0.14700
H2456       H  0.73804060  0.58590536  0.13222497    -0.00200
H2457       H  0.64858166  0.57374880  0.18307244     0.14400
H2458       H  0.72861714  0.66361883  0.19454373     0.14200
C2459       C  0.87757497  0.81479306  0.35130819     0.86000
C2460       C  0.87544772  0.80313165  0.39875739    -0.54300
C2461       C  0.88985298  0.78568562  0.40488921     0.08900
C2462       C  0.90601119  0.78203166  0.36321020     0.19800
C2463       C  0.91450077  0.83459519  0.34223899    -0.55000
C2464       C  0.92953326  0.81788964  0.34892833     0.09000
C2465       C  0.86363438  0.78335956  0.32250920    -0.54500
C2466       C  0.87838261  0.76621319  0.32853581     0.09500
H2467       H  0.86358666  0.80829846  0.42551542     0.14100
H2468       H  0.91758835  0.76779346  0.36848070    -0.00200
H2469       H  0.92839767  0.86023887  0.33395022     0.14400
H2470       H  0.84353746  0.77519772  0.29936372     0.14200
C2471       C  0.69426913  0.61918311  0.36050442     0.86000
C2472       C  0.72526873  0.63616878  0.33386377    -0.54300
C2473       C  0.74471583  0.62396577  0.33734102     0.08900
C2474       C  0.73082256  0.59459790  0.36901821     0.19800
C2475       C  0.67698870  0.58209995  0.34592375    -0.55000
C2476       C  0.69616814  0.56900225  0.35077937     0.09000
C2477       C  0.70502455  0.61986915  0.40762360    -0.54500
C2478       C  0.72356629  0.60679665  0.41288793     0.09500
H2479       H  0.73067600  0.65611196  0.31232134     0.14100
H2480       H  0.74675217  0.58473894  0.37281535    -0.00200
H2481       H  0.65124846  0.56681296  0.33719441     0.14400
H2482       H  0.69578180  0.62717519  0.43556808     0.14200
C2483       C  0.57070495  0.87586356  0.35790641     0.86000
C2484       C  0.57648242  0.86859980  0.40410133    -0.54300
C2485       C  0.60823595  0.87936571  0.41424965     0.08900
C2486       C  0.63238204  0.89940493  0.37658261     0.19800
C2487       C  0.59295900  0.91343748  0.35510439    -0.55000
C2488       C  0.62528318  0.92639745  0.36456674     0.09000
C2489       C  0.58696178  0.86339816  0.32663799    -0.54500
C2490       C  0.61850680  0.87450913  0.33713586     0.09500
H2491       H  0.55642573  0.85643014  0.42717775     0.14100
H2492       H  0.65855241  0.90914595  0.38338902    -0.00200
H2493       H  0.58414921  0.92869446  0.34457443     0.14400
H2494       H  0.57531501  0.84805559  0.29729104     0.14200
C2495       C  0.62772240  0.93009631  0.15083088     0.86000
C2496       C  0.63598650  0.92205207  0.10533399    -0.54300
C2497       C  0.62230165  0.88921843  0.09567071     0.08900
C2498       C  0.60056669  0.86676823  0.13317032     0.19800
C2499       C  0.58998135  0.90975470  0.15234025    -0.55000
C2500       C  0.57542400  0.87688362  0.14218329     0.09000
C2501       C  0.63698985  0.91283291  0.18334700    -0.54500
C2502       C  0.62390162  0.88020379  0.17352405     0.09500
H2503       H  0.65013146  0.94110979  0.08169213     0.14100
H2504       H  0.58937336  0.84001382  0.12597654    -0.00200
H2505       H  0.57550975  0.92031511  0.16022593     0.14400
H2506       H  0.65256998  0.92495667  0.21203602     0.14200
C2507       C  0.88287649  0.81085519  0.13993287     0.86000
C2508       C  0.87449902  0.78544431  0.17448672    -0.54300
C2509       C  0.88448357  0.76436052  0.16529376     0.08900
C2510       C  0.90682036  0.77385135  0.12427641     0.19800
C2511       C  0.92072555  0.83044140  0.13953293    -0.55000
C2512       C  0.93350979  0.81112042  0.13155837     0.09000
C2513       C  0.87272159  0.79209620  0.09561668    -0.54500
C2514       C  0.88541110  0.77327051  0.08654300     0.09500
H2515       H  0.86054102  0.78359873  0.20377439     0.14100
H2516       H  0.91657689  0.75789450  0.11745938    -0.00200
H2517       H  0.93615162  0.85682701  0.14617582     0.14400
H2518       H  0.85903616  0.79619010  0.07133033     0.14200
C2519       C  0.80655262  0.87423209  0.14461171     0.86000
C2520       C  0.79897468  0.87794757  0.09705500    -0.54300
C2521       C  0.78164835  0.89262981  0.09334369     0.08900
C2522       C  0.77328484  0.90254256  0.13776611     0.19800
C2523       C  0.82348580  0.90909172  0.16577021    -0.55000
C2524       C  0.80658063  0.92414805  0.16117478     0.09000
C2525       C  0.77282653  0.85589759  0.16732398    -0.54500
C2526       C  0.75556999  0.87074826  0.16382328     0.09500
H2527       H  0.80758457  0.87056208  0.06850582     0.14100
H2528       H  0.75943538  0.91477387  0.13470037    -0.00200
H2529       H  0.84805858  0.92203810  0.17969694     0.14400
H2530       H  0.76433590  0.83505559  0.18837452     0.14200
C2531       C  0.62831179  0.69297862  0.35878743     0.86000
C2532       C  0.63045274  0.70642954  0.40634201    -0.54300
C2533       C  0.61660489  0.72466511  0.41211550     0.08900
C2534       C  0.60142178  0.72774698  0.36986792     0.19800
C2535       C  0.59136837  0.67381469  0.34887875    -0.55000
C2536       C  0.57754067  0.69193868  0.35416469     0.09000
C2537       C  0.64337521  0.72367247  0.33058800    -0.54500
C2538       C  0.62929233  0.74175176  0.33628093     0.09500
H2539       H  0.63986921  0.69997008  0.43386478     0.14100
H2540       H  0.58992369  0.74232398  0.37463785    -0.00200
H2541       H  0.57623284  0.64762772  0.34174134     0.14400
H2542       H  0.66309305  0.73017398  0.30742477     0.14200
C2543       C  0.93702893  0.63386428  0.33855234     0.86000
C2544       C  0.92980319  0.63939381  0.38586667    -0.54300
C2545       C  0.89759969  0.62301182  0.39694053     0.08900
C2546       C  0.87448866  0.60488085  0.35699316     0.19800
C2547       C  0.91680885  0.59606051  0.33035263    -0.55000
C2548       C  0.88405519  0.58057763  0.33943913     0.09000
C2549       C  0.91929660  0.64566356  0.31116212    -0.54500
C2550       C  0.88699418  0.63141375  0.32144566     0.09500
H2551       H  0.94925779  0.65319207  0.41020088     0.14100
H2552       H  0.84808776  0.59313729  0.36453321    -0.00200
H2553       H  0.92823279  0.58268647  0.32049386     0.14400
H2554       H  0.92977726  0.66254730  0.28456472     0.14200
C2555       C  0.80985906  0.88644812  0.35789893     0.86000
C2556       C  0.77876680  0.86955176  0.33071578    -0.54300
C2557       C  0.75994267  0.88256954  0.33532494     0.08900
C2558       C  0.77436422  0.91242484  0.36865385     0.19800
C2559       C  0.82768895  0.92317631  0.34540446    -0.55000
C2560       C  0.80930591  0.93717026  0.35134208     0.09000
C2561       C  0.79934702  0.88679818  0.40526503    -0.54500
C2562       C  0.78096743  0.90016884  0.41155901     0.09500
H2563       H  0.77272704  0.84894000  0.30821871     0.14100
H2564       H  0.75860285  0.92251001  0.37295633    -0.00200
H2565       H  0.85310558  0.93760488  0.33544103     0.14400
H2566       H  0.80757144  0.87883400  0.43253428     0.14200
C2567       C  0.86645975  0.56514247  0.14190011     0.86000
C2568       C  0.86221597  0.57098570  0.09400316    -0.54300
C2569       C  0.87671048  0.60332785  0.08402383     0.08900
C2570       C  0.89376365  0.62759898  0.12396790     0.19800
C2571       C  0.90354370  0.58659579  0.15076846    -0.55000
C2572       C  0.91823281  0.61941163  0.14218644     0.09000
C2573       C  0.85269057  0.58271730  0.16835333    -0.54500
C2574       C  0.86685785  0.61509939  0.15905994     0.09500
H2575       H  0.85087047  0.55124305  0.06897480     0.14100
H2576       H  0.90434215  0.65386634  0.11678772    -0.00200
H2577       H  0.91721607  0.57622896  0.16200941     0.14400
H2578       H  0.83422455  0.57192289  0.19357033     0.14200
C2579       C  0.60737424  0.68269400  0.14543280     0.86000
C2580       C  0.62450395  0.71411332  0.17441508    -0.54300
C2581       C  0.61390625  0.73496616  0.16941575     0.08900
C2582       C  0.58568634  0.72196446  0.13577753     0.19800
C2583       C  0.57068136  0.66689271  0.15665516    -0.55000
C2584       C  0.55923715  0.68741436  0.15211159     0.09000
C2585       C  0.60983977  0.69443101  0.09853005    -0.54500
C2586       C  0.59873261  0.71472154  0.09315105     0.09500
H2587       H  0.64379257  0.71926268  0.19756658     0.14100
H2588       H  0.57710558  0.73895066  0.13145748    -0.00200
H2589       H  0.55418590  0.64163918  0.16490995     0.14400
H2590       H  0.61943944  0.68694086  0.07125319     0.14200
O2591       O  0.88185786  0.71644207  0.19223899    -0.82300
C2592       C  0.77333203  0.63717300  0.30758740     0.97000
O2593       O  0.77978694  0.66161246  0.28513190    -0.71500
O2594       O  0.83617948  0.71489726  0.30120310    -0.75000
Al2595     Al  0.81449628  0.69194218  0.24914364     1.49000
C2596       C  0.86663160  0.73486792  0.30405953     0.92300
O2597       O  0.88098063  0.67285674  0.29466284    -0.81300
O2598       O  0.82803834  0.62307189  0.19263640    -0.74800
Al2599     Al  0.87842806  0.69286733  0.24397028     1.90100
O2600       O  0.84155861  0.62154694  0.27922540    -0.73900
O2601       O  0.77392633  0.62069890  0.21319837    -0.73700
O2602       O  0.78934185  0.62365288  0.30177770    -0.79400
O2603       O  0.78986892  0.67135437  0.19719197    -0.77600
O2604       O  0.83451804  0.67029757  0.24644318    -1.13700
O2605       O  0.84529189  0.72717437  0.21428056    -0.72900
C2606       C  0.86996030  0.73411759  0.19119089     0.97800
C2607       C  0.86796509  0.64227278  0.29885972     0.94200
Al2608     Al  0.81044182  0.62607176  0.24662378     1.55600
O2609       O  0.88603884  0.72993580  0.28190509    -0.77600
C2610       C  0.76979641  0.64070106  0.19269450     0.98300
C2611       C  0.85801508  0.63511328  0.18545291     0.93200
O2612       O  0.87996805  0.66097011  0.20575349    -0.82900
C2613       C  0.95436745  0.64325043  0.15030464    -0.00700
C2614       C  0.96913177  0.63730584  0.18543403    -0.12600
C2615       C  0.50320110  0.65277878  0.18863400     0.01500
C2616       C  0.52370257  0.67571419  0.15686718    -0.00800
C2617       C  0.50928296  0.68545082  0.12609261    -0.12500
C2618       C  0.97507744  0.66925552  0.12198380     0.01400
H2619       H  0.95390019  0.61923725  0.20960444     0.14400
H2620       H  0.52458111  0.70396054  0.10251664     0.14400
C2621       C  0.96268329  0.67843214  0.08600883     0.36100
C2622       C  0.51614694  0.64395350  0.22441642     0.36000
N2623       N  0.95343623  0.68630560  0.05687169    -0.44300
N2624       N  0.52629704  0.63639969  0.25281241    -0.44300
C2625       C  0.88918739  0.61647988  0.44449958    -0.00700
C2626       C  0.90933009  0.61025269  0.46979578    -0.12600
C2627       C  0.90734506  0.60923689  0.01532315     0.01500
C2628       C  0.88319571  0.61207390  0.03718353    -0.00800
C2629       C  0.86155836  0.61650420  0.01227535    -0.12500
C2630       C  0.86468106  0.61915912  0.46601237     0.01400
H2631       H  0.92757606  0.60690130  0.45389640     0.14400
H2632       H  0.84211024  0.61747063  0.02882323     0.14400
C2633       C  0.84285225  0.62475595  0.44153432     0.36100
C2634       C  0.93079981  0.60544031  0.03877399     0.36000
N2635       N  0.82530678  0.62906641  0.42164480    -0.44300
N2636       N  0.95010582  0.60295272  0.05717001    -0.44300
C2637       C  0.82371137  0.97342072  0.34486510    -0.00700
C2638       C  0.84538584  0.98857943  0.30962145    -0.12600
C2639       C  0.86369974  0.52297892  0.30550788     0.01500
C2640       C  0.86127555  0.54358817  0.33770974    -0.00800
C2641       C  0.83782922  0.52837664  0.37097959    -0.12500
C2642       C  0.81882420  0.99386886  0.37448969     0.01400
H2643       H  0.84842807  0.97342459  0.28526220     0.14400
H2644       H  0.83517361  0.54353051  0.39574870     0.14400
C2645       C  0.79560692  0.98103953  0.41005148     0.36100
C2646       C  0.88476426  0.53614825  0.26776278     0.36000
N2647       N  0.77695996  0.97178651  0.43863109    -0.44300
N2648       N  0.90190136  0.54645261  0.23767250    -0.44300
C2649       C  0.60916296  0.73162488  0.45696013    -0.00700
C2650       C  0.57803495  0.70913200  0.47339211    -0.12600
C2651       C  0.57286656  0.70533055  0.01876333     0.01500
C2652       C  0.59860186  0.72603678  0.04852472    -0.00800
C2653       C  0.62856386  0.75150679  0.03188458    -0.12500
C2654       C  0.63417065  0.75413210  0.48630590     0.01400
H2655       H  0.55885699  0.69164817  0.45084333     0.14400
H2656       H  0.64869209  0.76689098  0.05451832     0.14400
C2657       C  0.66636959  0.77820078  0.47038396     0.36100
C2658       C  0.54299174  0.67647516  0.03316823     0.36000
N2659       N  0.69213644  0.79748589  0.45742878    -0.44300
N2660       N  0.51919178  0.65270023  0.04374519    -0.44300
C2661       C  0.54204766  0.67717488  0.34871161    -0.00700
C2662       C  0.53110982  0.69257248  0.32206872    -0.12600
C2663       C  0.99755912  0.67913850  0.31533610     0.01500
C2664       C  0.97405919  0.64891846  0.33523288    -0.00800
C2665       C  0.98588986  0.63378963  0.36163822    -0.12500
C2666       C  0.51909156  0.64775921  0.36922280     0.01400
H2667       H  0.54899551  0.71539677  0.30653439     0.14400
H2668       H  0.96878068  0.61169937  0.37917252     0.14400
C2669       C  0.52865164  0.63266768  0.40104028     0.36100
C2670       C  0.98942322  0.69838922  0.28956216     0.36000
N2671       N  0.53627802  0.62080785  0.42687261    -0.44300
N2672       N  0.98411419  0.71473162  0.26866450    -0.44300
C2673       C  0.82367722  0.96030672  0.16235324    -0.00700
C2674       C  0.84959177  0.97737662  0.13324753    -0.12600
C2675       C  0.86350575  0.51078135  0.12650994     0.01500
C2676       C  0.85211469  0.52857981  0.15039134    -0.00800
C2677       C  0.82699386  0.51122940  0.18162572    -0.12500
C2678       C  0.81260383  0.97741782  0.18721759     0.01400
H2679       H  0.85793300  0.96403734  0.11379402     0.14400
H2680       H  0.81767458  0.52307290  0.20184507     0.14400
C2681       C  0.78695376  0.96114002  0.21929730     0.36100
C2682       C  0.88820989  0.52486995  0.09284219     0.36000
N2683       N  0.76674301  0.94891667  0.24566939    -0.44300
N2684       N  0.90737151  0.53403945  0.06496987    -0.44300
C2685       C  0.77630120  0.90184186  0.04969880    -0.00700
C2686       C  0.80358892  0.92768067  0.02886373    -0.12600
C2687       C  0.80385845  0.93065499  0.48325938     0.01500
C2688       C  0.77605214  0.90771148  0.45764397    -0.00800
C2689       C  0.74728866  0.88441821  0.47925881    -0.12500
C2690       C  0.74733731  0.88116532  0.02516288     0.01400
H2691       H  0.82596272  0.94348568  0.04757008     0.14400
H2692       H  0.72603409  0.86649328  0.45986204     0.14400
C2693       C  0.71873445  0.85441307  0.04579267     0.36100
C2694       C  0.83453062  0.95453143  0.46303822     0.36000
N2695       N  0.69595949  0.83302641  0.06271396    -0.44300
N2696       N  0.85923249  0.97357106  0.44710649    -0.44300
C2697       C  0.82736472  0.85890390  0.14616651    -0.00700
C2698       C  0.81257988  0.82556491  0.15615238    -0.12600
C2699       C  0.83007806  0.81014477  0.15511478     0.01500
C2700       C  0.86442001  0.82844459  0.14665042    -0.00800
C2701       C  0.87905711  0.86147518  0.13504744    -0.12500
C2702       C  0.86079315  0.87626794  0.13305263     0.01400
H2703       H  0.78653077  0.81024498  0.16172822     0.14400
H2704       H  0.90426148  0.87525975  0.12420182     0.14400
C2705       C  0.87659692  0.90832135  0.11377428     0.36100
C2706       C  0.81109059  0.77480278  0.16041150     0.36000
N2707       N  0.88959616  0.93377953  0.09762339    -0.44300
N2708       N  0.79612718  0.74660986  0.16527642    -0.44300
C2709       C  0.53901591  0.85580132  0.13484018    -0.00700
C2710       C  0.52482419  0.86751605  0.10671673    -0.12600
C2711       C  0.99076673  0.85261038  0.10393030     0.01500
C2712       C  0.96969372  0.82518459  0.12977943    -0.00800
C2713       C  0.98363782  0.81197158  0.15568042    -0.12500
C2714       C  0.51797559  0.82705346  0.15847659     0.01400
H2715       H  0.54061234  0.88915336  0.08758703     0.14400
H2716       H  0.96775653  0.79068142  0.17529985     0.14400
C2717       C  0.53093127  0.81366677  0.18767345     0.36100
C2718       C  0.97811084  0.86589992  0.07392986     0.36000
N2719       N  0.54103184  0.80264719  0.21111777    -0.44300
N2720       N  0.96803013  0.87657334  0.04984061    -0.44300
C2721       C  0.61691226  0.87245360  0.45824488    -0.00700
C2722       C  0.64787226  0.89415463  0.47715098    -0.12600
C2723       C  0.65192555  0.89641547  0.02313336     0.01500
C2724       C  0.62430331  0.87760050  0.05028614    -0.00800
C2725       C  0.59607462  0.85063639  0.03089595    -0.12500
C2726       C  0.59301212  0.84692963  0.48496521     0.01400
H2727       H  0.66836058  0.91060631  0.45672048     0.14400
H2728       H  0.57555747  0.83369649  0.05109144     0.14400
C2729       C  0.56562905  0.81663131  0.46628154     0.36100
C2730       C  0.68424028  0.91848324  0.04171554     0.36000
N2731       N  0.54389328  0.79223544  0.45126039    -0.44300
N2732       N  0.71018547  0.93587158  0.05659979    -0.44300
C2733       C  0.67699699  0.63801990  0.35729329    -0.00700
C2734       C  0.64779474  0.62514842  0.33326686    -0.12600
C2735       C  0.63277097  0.64314220  0.32944062     0.01500
C2736       C  0.64540208  0.67375628  0.35324789    -0.00800
C2737       C  0.67628957  0.68787267  0.37318856    -0.12500
C2738       C  0.69220810  0.67090639  0.37492254     0.01400
H2739       H  0.63742866  0.60179929  0.31528467     0.14400
H2740       H  0.68807084  0.71247622  0.38818637     0.14400
C2741       C  0.72453880  0.68842042  0.39482956     0.36100
C2742       C  0.60717359  0.63103789  0.29673134     0.36000
N2743       N  0.75042580  0.70246014  0.41065392    -0.44300
N2744       N  0.58666429  0.62114469  0.27036741    -0.44300
C2745       C  0.68268736  0.53250071  0.34936701    -0.00700
C2746       C  0.68918674  0.51879729  0.38502342    -0.12600
C2747       C  0.67178495  0.98447723  0.39066045     0.01500
C2748       C  0.64965716  0.96259111  0.35772162    -0.00800
C2749       C  0.64626083  0.97645601  0.31943793    -0.12500
C2750       C  0.66131963  0.51071920  0.31587944     0.01400
H2751       H  0.70555914  0.53498687  0.41115479     0.14400
H2752       H  0.62963559  0.96025684  0.29342331     0.14400
C2753       C  0.65276728  0.52260965  0.27880575     0.36100
C2754       C  0.67387893  0.97357569  0.43337733     0.36000
N2755       N  0.64504697  0.53201760  0.24979037    -0.44300
N2756       N  0.67611849  0.96706518  0.46895334    -0.44300
C2757       C  0.88910097  0.77208461  0.44844110    -0.00700
C2758       C  0.85859170  0.75295741  0.46893992    -0.12600
C2759       C  0.85659551  0.74810811  0.01431609     0.01500
C2760       C  0.88555187  0.76296122  0.03998350    -0.00800
C2761       C  0.91582162  0.77757381  0.01852430    -0.12500
C2762       C  0.91786258  0.78228363  0.47292981     0.01400
H2763       H  0.83630195  0.74409293  0.45008291     0.14400
H2764       H  0.93819403  0.78874373  0.03791827     0.14400
C2765       C  0.95002194  0.80047459  0.45370530     0.36100
C2766       C  0.82467864  0.73111186  0.03458901     0.36000
N2767       N  0.97636255  0.81485419  0.43989189    -0.44300
N2768       N  0.79912358  0.71775949  0.05086709    -0.44300
C2769       C  0.96564009  0.83406136  0.34774307    -0.00700
C2770       C  0.97840012  0.81550368  0.33243234    -0.12600
C2771       C  0.51186466  0.82787856  0.33565740     0.01500
C2772       C  0.53419246  0.86123989  0.35000155    -0.00800
C2773       C  0.52095575  0.87939590  0.36614585    -0.12500
C2774       C  0.98732060  0.86615642  0.36592378     0.01400
H2775       H  0.96190259  0.79041733  0.31999384     0.14400
H2776       H  0.53669791  0.90342311  0.38203301     0.14400
C2777       C  0.97600665  0.88495578  0.38897329     0.36100
C2778       C  0.52131493  0.80431945  0.32811308     0.36000
N2779       N  0.96710738  0.90009802  0.40756280    -0.44300
N2780       N  0.52859010  0.78519328  0.32217239    -0.44300
C2781       C  0.85917095  0.83240696  0.34563624    -0.00700
C2782       C  0.82823505  0.81821991  0.36529882    -0.12600
C2783       C  0.81195260  0.83486996  0.36835367     0.01500
C2784       C  0.82690260  0.86739520  0.35247585    -0.00800
C2785       C  0.85558435  0.87963177  0.32753004    -0.12500
C2786       C  0.87083841  0.86183768  0.32222280     0.01400
H2787       H  0.81685149  0.79399228  0.37927566     0.14400
H2788       H  0.86527880  0.90215269  0.30980567     0.14400
C2789       C  0.89500091  0.87219869  0.28787113     0.36100
C2790       C  0.77960780  0.81744943  0.38761103     0.36000
N2791       N  0.91399895  0.88060128  0.25978057    -0.44300
N2792       N  0.75366424  0.80333632  0.40277754    -0.44300
C2793       C  0.67367497  0.53712151  0.15789702    -0.00700
C2794       C  0.69117425  0.52367871  0.17266511    -0.12600
C2795       C  0.67727152  0.98944310  0.17118070     0.01500
C2796       C  0.64405676  0.96754611  0.15733628    -0.00800
C2797       C  0.62768214  0.98170123  0.14003305    -0.12500
C2798       C  0.64193504  0.51569486  0.13995314     0.01400
H2799       H  0.71615278  0.54006845  0.18444878     0.14400
H2800       H  0.60406912  0.96633072  0.12395755     0.14400
C2801       C  0.62406546  0.52767164  0.11816565     0.36100
C2802       C  0.69889256  0.97839048  0.18087245     0.36000
N2803       N  0.60979626  0.53730095  0.10078407    -0.44300
N2804       N  0.71663668  0.97000700  0.18858802    -0.44300
C2805       C  0.72484091  0.59626182  0.45778035    -0.00700
C2806       C  0.75322633  0.61613450  0.48345755    -0.12600
C2807       C  0.75127306  0.61704518  0.02972091     0.01500
C2808       C  0.72052318  0.59829926  0.05016627    -0.00800
C2809       C  0.69320691  0.57531145  0.02496842    -0.12500
C2810       C  0.69501254  0.57404190  0.47917454     0.01400
H2811       H  0.77609789  0.63336503  0.46746655     0.14400
H2812       H  0.66962723  0.56052434  0.04085993     0.14400
C2813       C  0.66467595  0.55328371  0.45501770     0.36100
C2814       C  0.78038612  0.63925041  0.05529614     0.36000
N2815       N  0.64018096  0.53679089  0.43608426    -0.44300
N2816       N  0.80372483  0.65674081  0.07602209    -0.44300
C2817       C  0.66656550  0.63813051  0.15290586    -0.00700
C2818       C  0.63289130  0.61918034  0.16372287    -0.12600
C2819       C  0.61246737  0.63156148  0.16126454     0.01500
C2820       C  0.62564577  0.66459128  0.14905521    -0.00800
C2821       C  0.65930404  0.68340322  0.13835292    -0.12500
C2822       C  0.67925946  0.67064467  0.13930275     0.01400
H2823       H  0.62106296  0.59364212  0.17182121     0.14400
H2824       H  0.67013339  0.70853608  0.12779901     0.14400
C2825       C  0.71217106  0.69099604  0.12280198     0.36100
C2826       C  0.57816646  0.60827127  0.16904566     0.36000
N2827       N  0.73823106  0.70712408  0.10852933    -0.44300
N2828       N  0.55091120  0.58841287  0.17543451    -0.44300
O2829       O  0.61580320  0.78232088  0.70186385    -0.82300
C2830       C  0.73068782  0.86885740  0.80641024     0.97000
O2831       O  0.72359987  0.84384641  0.78261022    -0.71500
O2832       O  0.66954682  0.79026985  0.80301815    -0.75000
Al2833     Al  0.68688477  0.81130841  0.74975328     1.49000
C2834       C  0.63948842  0.77084489  0.80999179     0.92300
O2835       O  0.62212061  0.83118875  0.80680225    -0.81300
O2836       O  0.66641619  0.87607910  0.70106456    -0.74800
Al2837     Al  0.62188658  0.80847410  0.75460327     1.90100
O2838       O  0.66021901  0.88174428  0.78925719    -0.73900
O2839       O  0.72295872  0.88067264  0.71282720    -0.73700
O2840       O  0.71421810  0.88194957  0.80332356    -0.79400
O2841       O  0.70680462  0.82949122  0.69584887    -0.77600
O2842       O  0.66571744  0.83198520  0.75201217    -1.13700
O2843       O  0.65485229  0.77412504  0.71700800    -0.72900
C2844       C  0.62890234  0.76579366  0.69663815     0.97800
C2845       C  0.63550409  0.86204006  0.81135653     0.94200
Al2846     Al  0.68878811  0.87621491  0.75154253     1.55600
O2847       O  0.61836341  0.77438836  0.79130825    -0.77600
C2848       C  0.72623324  0.85987818  0.69076218     0.98300
C2849       C  0.63580388  0.86267676  0.69765355     0.93200
O2850       O  0.61612589  0.83739053  0.71893421    -0.82900
C2851       C  0.68752905  0.62274758  0.64954322     0.86000
C2852       C  0.69561509  0.61975067  0.60117136    -0.54300
C2853       C  0.71438510  0.60667134  0.59496117     0.08900
C2854       C  0.72307001  0.59687029  0.63758224     0.19800
C2855       C  0.67200222  0.58767109  0.66695049    -0.55000
C2856       C  0.68951207  0.57349789  0.65836683     0.09000
C2857       C  0.72094929  0.64205005  0.67320971    -0.54500
C2858       C  0.73941544  0.62841285  0.66730506     0.09500
H2859       H  0.68632592  0.62649364  0.57379653     0.14700
H2860       H  0.73804014  0.58590515  0.63222483    -0.00200
H2861       H  0.64858126  0.57374868  0.68307221     0.14400
H2862       H  0.72861659  0.66361849  0.69454397     0.14200
C2863       C  0.87757477  0.81479280  0.85130827     0.86000
C2864       C  0.87544718  0.80313113  0.89875741    -0.54300
C2865       C  0.88985239  0.78568507  0.90488935     0.08900
C2866       C  0.90601084  0.78203124  0.86321047     0.19800
C2867       C  0.91450064  0.83459491  0.84223949    -0.55000
C2868       C  0.92953303  0.81788928  0.84892890     0.09000
C2869       C  0.86363435  0.78335944  0.82250907    -0.54500
C2870       C  0.87838246  0.76621298  0.82853574     0.09500
H2871       H  0.86358595  0.80829787  0.92551538     0.14100
H2872       H  0.91758792  0.76779302  0.86848106    -0.00200
H2873       H  0.92839768  0.86023866  0.83395082     0.14400
H2874       H  0.84353753  0.77519776  0.79936340     0.14200
C2875       C  0.69426904  0.61918302  0.86050483     0.86000
C2876       C  0.72526874  0.63616892  0.83386434    -0.54300
C2877       C  0.74471584  0.62396591  0.83734140     0.08900
C2878       C  0.73082257  0.59459791  0.86901834     0.19800
C2879       C  0.67698876  0.58209995  0.84592385    -0.55000
C2880       C  0.69616820  0.56900228  0.85077935     0.09000
C2881       C  0.70502438  0.61986886  0.90762397    -0.54500
C2882       C  0.72356614  0.60679639  0.91288817     0.09500
H2883       H  0.73067601  0.65611218  0.81232205     0.14100
H2884       H  0.74675219  0.58473895  0.87281533    -0.00200
H2885       H  0.65124841  0.56681287  0.83719450     0.14400
H2886       H  0.69578155  0.62717481  0.93556864     0.14200
C2887       C  0.57070468  0.87586306  0.85790664     0.86000
C2888       C  0.57648216  0.86859922  0.90410152    -0.54300
C2889       C  0.60823576  0.87936517  0.91424967     0.08900
C2890       C  0.63238178  0.89940451  0.87658271     0.19800
C2891       C  0.59295861  0.91343698  0.85510484    -0.55000
C2892       C  0.62528282  0.92639698  0.86456707     0.09000
C2893       C  0.58696154  0.86339780  0.82663803    -0.54500
C2894       C  0.61850660  0.87450883  0.83713586     0.09500
H2895       H  0.55642563  0.85642961  0.92717786     0.14100
H2896       H  0.65855219  0.90914555  0.88338906    -0.00200
H2897       H  0.58414878  0.92869392  0.84457510     0.14400
H2898       H  0.57531472  0.84805513  0.79729118     0.14200
C2899       C  0.62772235  0.93009637  0.65083156     0.86000
C2900       C  0.63598671  0.92205236  0.60533471    -0.54300
C2901       C  0.62230201  0.88921881  0.59567112     0.08900
C2902       C  0.60056689  0.86676836  0.63317048     0.19800
C2903       C  0.58998131  0.90975463  0.65234054    -0.55000
C2904       C  0.57542409  0.87688362  0.64218342     0.09000
C2905       C  0.63698968  0.91283281  0.68334766    -0.54500
C2906       C  0.62390157  0.88020374  0.67352441     0.09500
H2907       H  0.65013167  0.94111026  0.58169288     0.14100
H2908       H  0.58937362  0.84001397  0.62597652    -0.00200
H2909       H  0.57550951  0.92031497  0.66022622     0.14400
H2910       H  0.65256958  0.92495640  0.71203686     0.14200
C2911       C  0.88287663  0.81085508  0.63993292     0.86000
C2912       C  0.87449903  0.78544407  0.67448660    -0.54300
C2913       C  0.88448350  0.76436023  0.66529356     0.08900
C2914       C  0.90682048  0.77385123  0.62427637     0.19800
C2915       C  0.92072571  0.83044131  0.63953312    -0.55000
C2916       C  0.93350992  0.81112027  0.63155858     0.09000
C2917       C  0.87272187  0.79209628  0.59561661    -0.54500
C2918       C  0.88541142  0.77327063  0.58654286     0.09500
H2919       H  0.86054101  0.78359845  0.70377429     0.14100
H2920       H  0.91657701  0.75789438  0.61745930    -0.00200
H2921       H  0.93615171  0.85682679  0.64617591     0.14400
H2922       H  0.85903657  0.79619031  0.57133025     0.14200
C2923       C  0.80655243  0.87423166  0.64461185     0.86000
C2924       C  0.79897451  0.87794720  0.59705516    -0.54300
C2925       C  0.78164814  0.89262941  0.59334394     0.08900
C2926       C  0.77328459  0.90254207  0.63776637     0.19800
C2927       C  0.82348556  0.90909125  0.66577047    -0.55000
C2928       C  0.80658033  0.92414755  0.66117512     0.09000
C2929       C  0.77282632  0.85589708  0.66732411    -0.54500
C2930       C  0.75556974  0.87074774  0.66382345     0.09500
H2931       H  0.80758438  0.87056175  0.56850594     0.14100
H2932       H  0.75943510  0.91477335  0.63470066    -0.00200
H2933       H  0.84805830  0.92203760  0.67969718     0.14400
H2934       H  0.76433574  0.83505511  0.68837464     0.14200
C2935       C  0.62831129  0.69297808  0.85878725     0.86000
C2936       C  0.63045181  0.70642870  0.90634188    -0.54300
C2937       C  0.61660392  0.72466423  0.91211524     0.08900
C2938       C  0.60142112  0.72774630  0.86986751     0.19800
C2939       C  0.59136796  0.67381418  0.84887797    -0.55000
C2940       C  0.57754017  0.69193808  0.85416384     0.09000
C2941       C  0.64337493  0.72367213  0.83058813    -0.54500
C2942       C  0.62929188  0.74175130  0.83628093     0.09500
H2943       H  0.63986815  0.69996916  0.93386480     0.14100
H2944       H  0.58992293  0.74232324  0.87463739    -0.00200
H2945       H  0.57623248  0.64762717  0.84174026     0.14400
H2946       H  0.66309288  0.73017380  0.80742529     0.14200
C2947       C  0.93702855  0.63386393  0.83855208     0.86000
C2948       C  0.92980290  0.63939346  0.88586644    -0.54300
C2949       C  0.89759946  0.62301154  0.89694044     0.08900
C2950       C  0.87448830  0.60488052  0.85699315     0.19800
C2951       C  0.91680843  0.59606017  0.83035235    -0.55000
C2952       C  0.88405483  0.58057728  0.83943899     0.09000
C2953       C  0.91929619  0.64566320  0.81116195    -0.54500
C2954       C  0.88699380  0.63141343  0.82144562     0.09500
H2955       H  0.94925760  0.65319176  0.91020059     0.14100
H2956       H  0.84808746  0.59313699  0.86453327    -0.00200
H2957       H  0.92823238  0.58268609  0.82049339     0.14400
H2958       H  0.92977682  0.66254685  0.78456443     0.14200
C2959       C  0.80985917  0.88644814  0.85789846     0.86000
C2960       C  0.77876680  0.86955162  0.83071554    -0.54300
C2961       C  0.75994264  0.88256938  0.83532484     0.08900
C2962       C  0.77436429  0.91242478  0.86865353     0.19800
C2963       C  0.82768894  0.92317625  0.84540378    -0.55000
C2964       C  0.80930590  0.93717019  0.85134154     0.09000
C2965       C  0.79934730  0.88679834  0.90526460    -0.54500
C2966       C  0.78096771  0.90016900  0.91155868     0.09500
H2967       H  0.77272695  0.84893980  0.80821867     0.14100
H2968       H  0.75860286  0.92250997  0.87295605    -0.00200
H2969       H  0.85310563  0.93760487  0.83544009     0.14400
H2970       H  0.80757184  0.87883421  0.93253390     0.14200
C2971       C  0.86645950  0.56514233  0.64189989     0.86000
C2972       C  0.86221577  0.57098562  0.59400299    -0.54300
C2973       C  0.87671023  0.60332775  0.58402372     0.08900
C2974       C  0.89376336  0.62759886  0.62396784     0.19800
C2975       C  0.90354343  0.58659567  0.65076837    -0.55000
C2976       C  0.91823250  0.61941152  0.64218645     0.09000
C2977       C  0.85269026  0.58271710  0.66835314    -0.54500
C2978       C  0.86685754  0.61509921  0.65905981     0.09500
H2979       H  0.85087026  0.55124294  0.56897452     0.14100
H2980       H  0.90434184  0.65386622  0.61678771    -0.00200
H2981       H  0.91721581  0.57622886  0.66200937     0.14400
H2982       H  0.83422422  0.57192268  0.69356999     0.14200
C2983       C  0.60737383  0.68269381  0.64543274     0.86000
C2984       C  0.62450345  0.71411301  0.67441524    -0.54300
C2985       C  0.61390583  0.73496590  0.66941595     0.08900
C2986       C  0.58568602  0.72196433  0.63577756     0.19800
C2987       C  0.57068093  0.66689252  0.65665490    -0.55000
C2988       C  0.55923675  0.68741422  0.65211141     0.09000
C2989       C  0.60983953  0.69443098  0.59853006    -0.54500
C2990       C  0.59873238  0.71472152  0.59315109     0.09500
H2991       H  0.64379204  0.71926230  0.69756686     0.14100
H2992       H  0.57710529  0.73895061  0.63145750    -0.00200
H2993       H  0.55418545  0.64163897  0.66490959     0.14400
H2994       H  0.61943937  0.68694097  0.57125323     0.14200
O2995       O  0.88185772  0.71644177  0.69223890    -0.82300
C2996       C  0.77333191  0.63717301  0.80758753     0.97000
O2997       O  0.77978672  0.66161239  0.78513189    -0.71500
O2998       O  0.83617926  0.71489718  0.80120281    -0.75000
Al2999     Al  0.81449602  0.69194198  0.74914343     1.49000
C3000       C  0.86663139  0.73486775  0.80405933     0.92300
O3001       O  0.88098025  0.67285646  0.79466295    -0.81300
O3002       O  0.82803795  0.62307157  0.69263635    -0.74800
Al3003     Al  0.87842776  0.69286704  0.74397026     1.90100
O3004       O  0.84155829  0.62154670  0.77922530    -0.73900
O3005       O  0.77392589  0.62069863  0.71319838    -0.73700
O3006       O  0.78934165  0.62365282  0.80177771    -0.79400
O3007       O  0.78986853  0.67135408  0.69719186    -0.77600
O3008       O  0.83451774  0.67029733  0.74644304    -1.13700
O3009       O  0.84529166  0.72717402  0.71428018    -0.72900
C3010       C  0.86996012  0.73411725  0.69119062     0.97800
C3011       C  0.86796471  0.64227250  0.79885974     0.94200
Al3012     Al  0.81044147  0.62607154  0.74662374     1.55600
O3013       O  0.88603860  0.72993553  0.78190499    -0.77600
C3014       C  0.76979595  0.64070078  0.69269451     0.98300
C3015       C  0.85801471  0.63511302  0.68545284     0.93200
O3016       O  0.87996768  0.66096983  0.70575350    -0.82900
C3017       C  0.95436710  0.64325037  0.65030474    -0.00700
C3018       C  0.96913145  0.63730577  0.68543407    -0.12600
C3019       C  0.50320075  0.65277868  0.68863392     0.01500
C3020       C  0.52370221  0.67571412  0.65686710    -0.00800
C3021       C  0.50928256  0.68545082  0.62609272    -0.12500
C3022       C  0.97507707  0.66925548  0.62198392     0.01400
H3023       H  0.95389990  0.61923716  0.70960448     0.14400
H3024       H  0.52458077  0.70396074  0.60251681     0.14400
C3025       C  0.96268290  0.67843206  0.58600892     0.36100
C3026       C  0.51614662  0.64395330  0.72441617     0.36000
N3027       N  0.95343596  0.68630551  0.55687167    -0.44300
N3028       N  0.52629670  0.63639935  0.75281200    -0.44300
C3029       C  0.88918727  0.61647971  0.94449955    -0.00700
C3030       C  0.90933006  0.61025255  0.96979567    -0.12600
C3031       C  0.90734499  0.60923694  0.51532323     0.01500
C3032       C  0.88319553  0.61207385  0.53718349    -0.00800
C3033       C  0.86155818  0.61650410  0.51227520    -0.12500
C3034       C  0.86468108  0.61915909  0.96601248     0.01400
H3035       H  0.92757594  0.60690113  0.95389628     0.14400
H3036       H  0.84210991  0.61747037  0.52882296     0.14400
C3037       C  0.84285235  0.62475610  0.94153449     0.36100
C3038       C  0.93079967  0.60544027  0.53877412     0.36000
N3039       N  0.82530708  0.62906676  0.92164489    -0.44300
N3040       N  0.95010570  0.60295260  0.55716997    -0.44300
C3041       C  0.82371129  0.97342062  0.84486473    -0.00700
C3042       C  0.84538571  0.98857936  0.80962104    -0.12600
C3043       C  0.86369945  0.52297851  0.80550797     0.01500
C3044       C  0.86127528  0.54358782  0.83770981    -0.00800
C3045       C  0.83782931  0.52837632  0.87098002    -0.12500
C3046       C  0.81882421  0.99386871  0.87448951     0.01400
H3047       H  0.84842784  0.97342460  0.78526167     0.14400
H3048       H  0.83517385  0.54353028  0.89574931     0.14400
C3049       C  0.79560696  0.98103932  0.91005130     0.36100
C3050       C  0.88476373  0.53614777  0.76776260     0.36000
N3051       N  0.77695988  0.97178620  0.93863077    -0.44300
N3052       N  0.90190062  0.54645199  0.73767216    -0.44300
C3053       C  0.60916201  0.73162409  0.95695981    -0.00700
C3054       C  0.57803431  0.70913071  0.97339221    -0.12600
C3055       C  0.57286682  0.70533166  0.51876316     0.01500
C3056       C  0.59860211  0.72603722  0.54852489    -0.00800
C3057       C  0.62856448  0.75150691  0.53188517    -0.12500
C3058       C  0.63416968  0.75413186  0.98630523     0.01400
H3059       H  0.55885643  0.69164644  0.95084372     0.14400
H3060       H  0.64869261  0.76689062  0.55451916     0.14400
C3061       C  0.66636836  0.77820093  0.97038279     0.36100
C3062       C  0.54299147  0.67647660  0.53316761     0.36000
N3063       N  0.69213495  0.79748622  0.95742716    -0.44300
N3064       N  0.51919113  0.65270193  0.54374408    -0.44300
C3065       C  0.54204720  0.67717428  0.84871062    -0.00700
C3066       C  0.53110934  0.69257207  0.82206814    -0.12600
C3067       C  0.99755869  0.67913827  0.81533585     0.01500
C3068       C  0.97405876  0.64891809  0.83523244    -0.00800
C3069       C  0.98588947  0.63378912  0.86163741    -0.12500
C3070       C  0.51909110  0.64775854  0.86922175     0.01400
H3071       H  0.54899508  0.71539655  0.80653401     0.14400
H3072       H  0.96878028  0.61169877  0.87917171     0.14400
C3073       C  0.52865120  0.63266686  0.90103896     0.36100
C3074       C  0.98942273  0.69838936  0.78956277     0.36000
N3075       N  0.53627759  0.62080696  0.92687119    -0.44300
N3076       N  0.98411361  0.71473201  0.76866582    -0.44300
C3077       C  0.82367688  0.96030623  0.66235350    -0.00700
C3078       C  0.84959142  0.97737605  0.63324774    -0.12600
C3079       C  0.86350553  0.51078123  0.62650961     0.01500
C3080       C  0.85211444  0.52857965  0.65039103    -0.00800
C3081       C  0.82699357  0.51122922  0.68162540    -0.12500
C3082       C  0.81260346  0.97741738  0.68721765     0.01400
H3083       H  0.85793264  0.96403674  0.61379436     0.14400
H3084       H  0.81767433  0.52307262  0.70184468     0.14400
C3085       C  0.78695328  0.96113966  0.71929723     0.36100
C3086       C  0.88820961  0.52486983  0.59284176     0.36000
N3087       N  0.76674232  0.94891633  0.74566903    -0.44300
N3088       N  0.90737108  0.53403932  0.56496924    -0.44300
C3089       C  0.77630079  0.90184137  0.54969911    -0.00700
C3090       C  0.80358839  0.92768047  0.52886418    -0.12600
C3091       C  0.80385903  0.93065519  0.98325896     0.01500
C3092       C  0.77605260  0.90771180  0.95764361    -0.00800
C3093       C  0.74728905  0.88441882  0.97925850    -0.12500
C3094       C  0.74733700  0.88116463  0.52516318     0.01400
H3095       H  0.82596195  0.94348548  0.54757043     0.14400
H3096       H  0.72603436  0.86649404  0.95986175     0.14400
C3097       C  0.71873448  0.85441194  0.54579290     0.36100
C3098       C  0.83453115  0.95453155  0.96303771     0.36000
N3099       N  0.69595991  0.83302486  0.56271426    -0.44300
N3100       N  0.85923305  0.97357121  0.94710602    -0.44300
C3101       C  0.82736464  0.85890356  0.64616651    -0.00700
C3102       C  0.81257982  0.82556454  0.65615226    -0.12600
C3103       C  0.83007810  0.81014449  0.65511459     0.01500
C3104       C  0.86442010  0.82844443  0.64665052    -0.00800
C3105       C  0.87905715  0.86147503  0.63504770    -0.12500
C3106       C  0.86079308  0.87626766  0.63305269     0.01400
H3107       H  0.78653084  0.81024465  0.66172803     0.14400
H3108       H  0.90426165  0.87525975  0.62420225     0.14400
C3109       C  0.87659682  0.90832112  0.61377446     0.36100
C3110       C  0.81109066  0.77480248  0.66041113     0.36000
N3111       N  0.88959609  0.93377934  0.59762374    -0.44300
N3112       N  0.79612727  0.74660954  0.66527602    -0.44300
C3113       C  0.53901603  0.85580117  0.63484036    -0.00700
C3114       C  0.52482433  0.86751557  0.60671626    -0.12600
C3115       C  0.99076680  0.85260990  0.60393003     0.01500
C3116       C  0.96969385  0.82518447  0.62977967    -0.00800
C3117       C  0.98363796  0.81197175  0.65568123    -0.12500
C3118       C  0.51797576  0.82705374  0.65847747     0.01400
H3119       H  0.54061241  0.88915249  0.58758620     0.14400
H3120       H  0.96775674  0.79068189  0.67530096     0.14400
C3121       C  0.53093147  0.81366751  0.68767509     0.36100
C3122       C  0.97811082  0.86589911  0.57392913     0.36000
N3123       N  0.54103208  0.80264833  0.71112004    -0.44300
N3124       N  0.96803000  0.87657221  0.54983957    -0.44300
C3125       C  0.61691213  0.87245294  0.95824476    -0.00700
C3126       C  0.64787214  0.89415400  0.97715087    -0.12600
C3127       C  0.65192574  0.89641615  0.52313346     0.01500
C3128       C  0.62430353  0.87760115  0.55028632    -0.00800
C3129       C  0.59607475  0.85063719  0.53089615    -0.12500
C3130       C  0.59301205  0.84692889  0.98496499     0.01400
H3131       H  0.66836045  0.91060572  0.95672044     0.14400
H3132       H  0.57555758  0.83369733  0.55109169     0.14400
C3133       C  0.56562908  0.81663054  0.96628113     0.36100
C3134       C  0.68424048  0.91848408  0.54171546     0.36000
N3135       N  0.54389353  0.79223466  0.95125975    -0.44300
N3136       N  0.71018573  0.93587269  0.55659946    -0.44300
C3137       C  0.67699674  0.63801964  0.85729378    -0.00700
C3138       C  0.64779472  0.62514822  0.83326679    -0.12600
C3139       C  0.63277088  0.64314194  0.82944042     0.01500
C3140       C  0.64540171  0.67375588  0.85324791    -0.00800
C3141       C  0.67628901  0.68787221  0.87318912    -0.12500
C3142       C  0.69220755  0.67090597  0.87492343     0.01400
H3143       H  0.63742895  0.60179930  0.81528437     0.14400
H3144       H  0.68807012  0.71247571  0.88818717     0.14400
C3145       C  0.72453798  0.68841993  0.89483119     0.36100
C3146       C  0.60717374  0.63103769  0.79673075     0.36000
N3147       N  0.75042477  0.70245962  0.91065621    -0.44300
N3148       N  0.58666471  0.62114458  0.77036647    -0.44300
C3149       C  0.68268744  0.53250077  0.84936714    -0.00700
C3150       C  0.68918677  0.51879736  0.88502359    -0.12600
C3151       C  0.67178436  0.98447676  0.89066079     0.01500
C3152       C  0.64965670  0.96259061  0.85772191    -0.00800
C3153       C  0.64626032  0.97645546  0.81943820    -0.12500
C3154       C  0.66131975  0.51071924  0.81587952     0.01400
H3155       H  0.70555925  0.53498704  0.91115511     0.14400
H3156       H  0.62963512  0.96025623  0.79342356     0.14400
C3157       C  0.65276733  0.52260963  0.77880578     0.36100
C3158       C  0.67387829  0.97357518  0.93337768     0.36000
N3159       N  0.64504694  0.53201747  0.74979036    -0.44300
N3160       N  0.67611770  0.96706442  0.96895359    -0.44300
C3161       C  0.88910035  0.77208408  0.94844128    -0.00700
C3162       C  0.85859109  0.75295700  0.96894017    -0.12600
C3163       C  0.85659607  0.74810853  0.51431583     0.01500
C3164       C  0.88555236  0.76296155  0.53998330    -0.00800
C3165       C  0.91582219  0.77757428  0.51852417    -0.12500
C3166       C  0.91786195  0.78228293  0.97292992     0.01400
H3167       H  0.83630133  0.74409257  0.95008321     0.14400
H3168       H  0.93819454  0.78874417  0.53791819     0.14400
C3169       C  0.95002127  0.80047354  0.95370535     0.36100
C3170       C  0.82467916  0.73111240  0.53458870     0.36000
N3171       N  0.97636187  0.81485293  0.93989182    -0.44300
N3172       N  0.79912411  0.71776011  0.55086674    -0.44300
C3173       C  0.96563987  0.83406091  0.84774368    -0.00700
C3174       C  0.97839986  0.81550317  0.83243290    -0.12600
C3175       C  0.51186437  0.82787801  0.83565794     0.01500
C3176       C  0.53419219  0.86123937  0.85000190    -0.00800
C3177       C  0.52095552  0.87939537  0.86614642    -0.12500
C3178       C  0.98732035  0.86615589  0.86592452     0.01400
H3179       H  0.96190240  0.79041695  0.81999448     0.14400
H3180       H  0.53669769  0.90342250  0.88203372     0.14400
C3181       C  0.97600639  0.88495506  0.88897451     0.36100
C3182       C  0.52131463  0.80431889  0.82811367     0.36000
N3183       N  0.96710714  0.90009718  0.90756443    -0.44300
N3184       N  0.52858979  0.78519273  0.82217303    -0.44300
C3185       C  0.85917081  0.83240673  0.84563605    -0.00700
C3186       C  0.82823487  0.81821976  0.86529845    -0.12600
C3187       C  0.81195258  0.83486996  0.86835328     0.01500
C3188       C  0.82690269  0.86739521  0.85247540    -0.00800
C3189       C  0.85558447  0.87963166  0.82752970    -0.12500
C3190       C  0.87083843  0.86183748  0.82222255     0.01400
H3191       H  0.81685119  0.79399213  0.87927529     0.14400
H3192       H  0.86527908  0.90215273  0.80980529     0.14400
C3193       C  0.89500110  0.87219840  0.78787116     0.36100
C3194       C  0.77960779  0.81744958  0.88761057     0.36000
N3195       N  0.91399938  0.88060091  0.75978089    -0.44300
N3196       N  0.75366415  0.80333661  0.90277695    -0.44300
C3197       C  0.67367446  0.53712125  0.65789710    -0.00700
C3198       C  0.69117390  0.52367857  0.67266510    -0.12600
C3199       C  0.67727135  0.98944312  0.67118201     0.01500
C3200       C  0.64405666  0.96754615  0.65733726    -0.00800
C3201       C  0.62768204  0.98170127  0.64003399    -0.12500
C3202       C  0.64193441  0.51569450  0.63995370     0.01400
H3203       H  0.71615233  0.54006824  0.68444849     0.14400
H3204       H  0.60406913  0.96633082  0.62395849     0.14400
C3205       C  0.62406455  0.52767108  0.61816649     0.36100
C3206       C  0.69889228  0.97839048  0.68087430     0.36000
N3207       N  0.60979508  0.53730013  0.60078509    -0.44300
N3208       N  0.71663631  0.97000694  0.68859031    -0.44300
C3209       C  0.72484077  0.59626139  0.95778045    -0.00700
C3210       C  0.75322630  0.61613384  0.98345751    -0.12600
C3211       C  0.75127298  0.61704577  0.52972095     0.01500
C3212       C  0.72052310  0.59829952  0.55016620    -0.00800
C3213       C  0.69320697  0.57531160  0.52496825    -0.12500
C3214       C  0.69501238  0.57404159  0.97917471     0.01400
H3215       H  0.77609787  0.63336424  0.96746641     0.14400
H3216       H  0.66962730  0.56052426  0.54085972     0.14400
C3217       C  0.66467573  0.55328348  0.95501797     0.36100
C3218       C  0.78038593  0.63925106  0.55529634     0.36000
N3219       N  0.64018069  0.53679075  0.93608454    -0.44300
N3220       N  0.80372458  0.65674146  0.57602240    -0.44300
C3221       C  0.66656505  0.63813032  0.65290573    -0.00700
C3222       C  0.63289071  0.61917997  0.66372220    -0.12600
C3223       C  0.61246681  0.63156115  0.66126386     0.01500
C3224       C  0.62564532  0.66459107  0.64905508    -0.00800
C3225       C  0.65930364  0.68340308  0.63835309    -0.12500
C3226       C  0.67925908  0.67064456  0.63930294     0.01400
H3227       H  0.62106234  0.59364175  0.67182000     0.14400
H3228       H  0.67013306  0.70853602  0.62779935     0.14400
C3229       C  0.71217072  0.69099604  0.62280240     0.36100
C3230       C  0.57816577  0.60827080  0.66904438     0.36000
N3231       N  0.73823078  0.70712425  0.60852991    -0.44300
N3232       N  0.55091048  0.58841237  0.67543277    -0.44300
loop_ 
_geom_bond_atom_site_label_1 
_geom_bond_atom_site_label_2 
_geom_bond_distance 
_geom_bond_site_symmetry_2 
_ccdc_geom_bond_type 
O1           C16   1.262       .  A
O1           Al9   1.926       .  S
C2           O12   1.260       .  A
C2            O3   1.261       .  A
C2          C133   1.482       .  S
O3           Al5   1.884       .  S
O4            C6   1.256       .  A
O4           Al5   1.871       .  S
Al5          O13   1.876       .  S
Al5          O15   1.878       .  S
Al5          O14   1.771       .  S
C6           O19   1.267       .  A
C6          C114   1.469       .  S
O7           C17   1.263       .  A
O7           Al9   1.891       .  S
O8           C21   1.263       .  A
O8          Al18   1.885       .  S
Al9          O22   1.926       .  S
Al9          O19   1.943       .  S
Al9          O14   1.791       .  S
O10          C17   1.258       .  A
O10         Al18   1.906       .  S
O11          C20   1.264       .  A
O11         Al18   1.937       .  S
O12         Al18   1.927       .  S
O13          C20   1.256       .  A
O14         Al18   1.794       .  S
O15          C16   1.258       .  A
C16         C157   1.478       .  S
C17          C66   1.461       .  S
C20         C102   1.470       .  S
C21          O22   1.263       .  A
C21          C78   1.467       .  S
C23          C24   1.537       .  S
C23          C29   1.537       .  S
C23          C27   1.541       .  S
C23         C393   1.546       .  S
C24          H31   1.087       .  S
C24          C25   1.364       .  D
C25         C384   1.477       .  S
C25          C26   1.529       .  S
C26          C30   1.542       .  S
C26          C28   1.536       .  S
C26          H32   1.111       .  S
C27          H33   1.079       .  S
C27          C28   1.363       .  D
C28         C369   1.485       .  S
C29          H34   1.086       .  S
C29          C30   1.372       .  D
C30         C186   1.473       .  S
C35          C36   1.545       .  S
C35          C41   1.528       .  S
C35          C39   1.534       .  S
C35         C357   1.539       .  S
C36          H43   1.086       .  S
C36          C37   1.367       .  D
C37         C333   1.485       .  S
C37          C38   1.534       .  S
C38          C42   1.537       .  S
C38          C40   1.544       .  S
C38          H44   1.110       .  S
C39          H45   1.077       .  S
C39          C40   1.364       .  D
C40         C345   1.483       .  S
C41          H46   1.087       .  S
C41          C42   1.368       .  D
C42         C172   1.470       .  S
C47          C48   1.506       .  S
C47          C53   1.521       .  S
C47          C51   1.558       .  S
C47         C309   1.534       .  S
C48          H55   1.088       .  S
C48          C49   1.358       .  D
C49         C168   1.483       .  S
C49          C50   1.557       .  S
C50          C54   1.549       .  S
C50          C52   1.547       .  S
C50          H56   1.110       .  S
C51          H57   1.083       .  S
C51          C52   1.386       .  D
C52         C321   1.508       .  S
C53          H58   1.088       .  S
C53          C54   1.358       .  D
C54         C381   1.482       .  S
C59          C60   1.521       .  S
C59          C65   1.527       .  S
C59          C63   1.532       .  S
C59         C348   1.529       .  S
C60          H67   1.084       .  S
C60          C61   1.368       .  D
C61         C297   1.504       .  S
C61          C62   1.559       .  S
C62          C66   1.542       .  S
C62          C64   1.566       .  S
C62          H68   1.109       .  S
C63          H69   1.086       .  S
C63          C64   1.367       .  D
C64         C324   1.508       .  S
C65          H70   1.085       .  S
C65          C66   1.357       .  D
C71          C72   1.528       .  S
C71          C77   1.527       .  S
C71          C75   1.541       .  S
C71         C372   1.535       .  S
C72          H79   1.086       .  S
C72          C73   1.367       .  D
C73         C300   1.491       .  S
C73          C74   1.548       .  S
C74          C78   1.546       .  S
C74          C76   1.554       .  S
C74          H80   1.110       .  S
C75          H81   1.085       .  S
C75          C76   1.366       .  D
C76         C285   1.502       .  S
C77          H82   1.084       .  S
C77          C78   1.363       .  D
C83          C84   1.516       .  S
C83          C89   1.524       .  S
C83          C87   1.546       .  S
C83         C276   1.535       .  S
C84          H91   1.087       .  S
C84          C85   1.359       .  D
C85         C182   1.480       .  S
C85          C86   1.550       .  S
C86          C90   1.543       .  S
C86          C88   1.556       .  S
C86          H92   1.110       .  S
C87          H93   1.084       .  S
C87          C88   1.381       .  D
C88         C288   1.502       .  S
C89          H94   1.088       .  S
C89          C90   1.361       .  D
C90         C336   1.483       .  S
C95          C96   1.533       .  S
C95         C101   1.544       .  S
C95          C99   1.536       .  S
C95         C273   1.538       .  S
C96         H103   1.087       .  S
C96          C97   1.364       .  D
C97         C261   1.479       .  S
C97          C98   1.537       .  S
C98         C102   1.533       .  S
C98         C100   1.536       .  S
C98         H104   1.111       .  S
C99         H105   1.086       .  S
C99         C100   1.365       .  D
C100        C249   1.469       .  S
C101        H106   1.084       .  S
C101        C102   1.368       .  D
C107        C108   1.543       .  S
C107        C113   1.534       .  S
C107        C111   1.536       .  S
C107        C312   1.542       .  S
C108        H115   1.087       .  S
C108        C109   1.368       .  D
C109        C225   1.477       .  S
C109        C110   1.536       .  S
C110        C114   1.532       .  S
C110        C112   1.532       .  S
C110        H116   1.111       .  S
C111        H117   1.078       .  S
C111        C112   1.361       .  D
C112        C237   1.473       .  S
C113        H118   1.087       .  S
C113        C114   1.370       .  D
C119        C120   1.522       .  S
C119        C125   1.524       .  S
C119        C123   1.545       .  S
C119        C240   1.534       .  S
C120        H127   1.088       .  S
C120        C121   1.359       .  D
C121        C201   1.492       .  S
C121        C122   1.547       .  S
C122        C126   1.550       .  S
C122        C124   1.550       .  S
C122        H128   1.109       .  S
C123        H129   1.085       .  S
C123        C124   1.370       .  D
C124        C216   1.506       .  S
C125        H130   1.076       .  S
C125        C126   1.365       .  D
C126        C183   1.466       .  S
C131        C132   1.509       .  S
C131        C137   1.522       .  S
C131        C135   1.551       .  S
C131        C360   1.533       .  S
C132        H139   1.088       .  S
C132        C133   1.360       .  D
C133        C134   1.554       .  S
C134        C138   1.552       .  S
C134        C136   1.552       .  S
C134        H140   1.108       .  S
C135        H141   1.083       .  S
C135        C136   1.383       .  D
C136        C213   1.509       .  S
C137        H142   1.088       .  S
C137        C138   1.359       .  D
C138        C264   1.482       .  S
C143        C144   1.526       .  S
C143        C149   1.534       .  S
C143        C147   1.536       .  S
C143        C252   1.534       .  S
C144        H151   1.087       .  S
C144        C145   1.362       .  D
C145        C204   1.477       .  S
C145        C146   1.552       .  S
C146        C150   1.536       .  S
C146        C148   1.548       .  S
C146        H152   1.107       .  S
C147        H153   1.084       .  S
C147        C148   1.371       .  D
C148        C189   1.506       .  S
C149        H154   1.079       .  S
C149        C150   1.360       .  D
C150        C187   1.462       .  S
C155        C156   1.525       .  S
C155        C161   1.528       .  S
C155        C159   1.549       .  S
C155        C396   1.547       .  S
C156        H163   1.087       .  S
C156        C157   1.364       .  D
C157        C158   1.540       .  S
C158        C162   1.543       .  S
C158        C160   1.548       .  S
C158        H164   1.110       .  S
C159        H165   1.071       .  S
C159        C160   1.379       .  D
C160        C192   1.502       .  S
C161        H166   1.087       .  S
C161        C162   1.359       .  D
C162        C228   1.477       .  S
O167        C182   1.259       .  A
O167       Al175   1.920       .  S
C168        O178   1.260       .  A
C168        O169   1.264       .  A
O169       Al171   1.889       .  S
O170        C172   1.256       .  A
O170       Al171   1.869       .  S
Al171       O179   1.887       .  S
Al171       O181   1.891       .  S
Al171       O180   1.764       .  S
C172        O185   1.267       .  A
O173        C183   1.261       .  A
O173       Al175   1.881       .  S
O174        C187   1.259       .  A
O174       Al184   1.875       .  S
Al175       O188   1.926       .  S
Al175       O185   1.952       .  S
Al175       O180   1.795       .  S
O176        C183   1.261       .  A
O176       Al184   1.924       .  S
O177        C186   1.266       .  A
O177       Al184   1.938       .  S
O178       Al184   1.924       .  S
O179        C186   1.259       .  A
O180       Al184   1.793       .  S
O181        C182   1.263       .  A
C187        O188   1.264       .  A
C189        C190   1.410       .  A
C189        C194   1.417       .  A
C190       C1807   1.401       .  A
C190        H195   1.085       .  S
C191        C192   1.414       .  A
C191       C1806   1.401   1_455  A
C191        C198   1.444       .  S
C192        C193   1.406       .  A
C193       C1810   1.406   1_455  A
C193        H196   1.083       .  S
C194       C1809   1.406       .  A
C194        C197   1.442       .  S
C197        N199   1.158       .  T
C198        N200   1.157       .  T
C201        C202   1.407       .  A
C201        C206   1.411       .  A
C202        C607   1.384       .  A
C202        H207   1.085       .  S
C203        C204   1.405       .  A
C203        C606   1.384   1_554  A
C203        C210   1.443       .  S
C204        C205   1.409       .  A
C205        C610   1.413   1_554  A
C205        H208   1.084       .  S
C206        C609   1.413       .  A
C206        C209   1.442       .  S
C209        N211   1.157       .  T
C210        N212   1.156       .  T
C213        C214   1.406       .  A
C213        C218   1.421       .  A
C214       C1023   1.404       .  A
C214        H219   1.085       .  S
C215        C216   1.418       .  A
C215       C1022   1.404   1_545  A
C215        C222   1.441       .  S
C216        C217   1.404       .  A
C217       C1026   1.407   1_545  A
C217        H220   1.084       .  S
C218       C1025   1.407       .  A
C218        C221   1.441       .  S
C221        N223   1.157       .  T
C222        N224   1.156       .  T
C225        C226   1.398       .  A
C225        C230   1.408       .  A
C226        C631   1.397       .  A
C226        H231   1.084       .  S
C227        C228   1.411       .  A
C227        C630   1.397   1_554  A
C227        C234   1.440       .  S
C228        C229   1.404       .  A
C229        C634   1.403   1_554  A
C229        H232   1.084       .  S
C230        C633   1.403       .  A
C230        C233   1.442       .  S
C233        N235   1.157       .  T
C234        N236   1.156       .  T
C237        C238   1.398       .  A
C237        C242   1.405       .  A
C238       C1855   1.403   1_455  A
C238        H243   1.086       .  S
C239        C240   1.426       .  A
C239       C1854   1.403       .  A
C239        C246   1.440       .  S
C240        C241   1.414       .  A
C241       C1858   1.388       .  A
C241        H244   1.085       .  S
C242       C1857   1.388   1_455  A
C242        C245   1.447       .  S
C245        N247   1.157       .  T
C246        N248   1.158       .  T
C249        C250   1.393       .  A
C249        C254   1.400       .  A
C250       C1059   1.390       .  A
C250        H255   1.083       .  S
C251        C252   1.422       .  A
C251       C1058   1.390   1_545  A
C251        C258   1.441       .  S
C252        C253   1.416       .  A
C253       C1062   1.398   1_545  A
C253        H256   1.073       .  S
C254       C1061   1.398       .  A
C254        C257   1.441       .  S
C257        N259   1.156       .  T
C258        N260   1.156       .  T
C261        C262   1.398       .  A
C261        C266   1.409       .  A
C262        C667   1.395   1_554  A
C262        H267   1.083       .  S
C263        C264   1.416       .  A
C263        C666   1.395       .  A
C263        C270   1.446       .  S
C264        C265   1.404       .  A
C265        C670   1.407       .  A
C265        H268   1.084       .  S
C266        C669   1.407   1_554  A
C266        C269   1.442       .  S
C269        N271   1.157       .  T
C270        N272   1.157       .  T
C273        C274   1.403       .  A
C273        C278   1.424       .  A
C274        C275   1.394       .  A
C274        H279   1.080       .  S
C275        C276   1.427       .  A
C275        C282   1.447       .  S
C276        C277   1.404       .  A
C277        C278   1.405       .  A
C277        H280   1.082       .  S
C278        C281   1.444       .  S
C281        N283   1.157       .  T
C282        N284   1.157       .  T
C285        C286   1.407       .  A
C285        C290   1.413       .  A
C286       C1903   1.403   1_455  A
C286        H291   1.085       .  S
C287        C288   1.413       .  A
C287       C1902   1.403       .  A
C287        C294   1.445       .  S
C288        C289   1.409       .  A
C289       C1906   1.414       .  A
C289        H292   1.085       .  S
C290       C1905   1.414   1_455  A
C290        C293   1.442       .  S
C293        N295   1.157       .  T
C294        N296   1.157       .  T
C297        C298   1.401       .  A
C297        C302   1.421       .  A
C298        C703   1.404       .  A
C298        H303   1.080       .  S
C299        C300   1.417       .  A
C299        C702   1.404   1_554  A
C299        C306   1.445       .  S
C300        C301   1.399       .  A
C301        C706   1.399   1_554  A
C301        H304   1.083       .  S
C302        C705   1.399       .  A
C302        C305   1.445       .  S
C305        N307   1.157       .  T
C306        N308   1.157       .  T
C309        C310   1.403       .  A
C309        C314   1.425       .  A
C310        C311   1.407       .  A
C310        H315   1.082       .  S
C311        C312   1.427       .  A
C311        C318   1.441       .  S
C312        C313   1.402       .  A
C313        C314   1.395       .  A
C313        H316   1.085       .  S
C314        C317   1.447       .  S
C317        N319   1.158       .  T
C318        N320   1.157       .  T
C321        C322   1.408       .  A
C321        C326   1.410       .  A
C322       C1131   1.408   1_545  A
C322        H327   1.083       .  S
C323        C324   1.413       .  A
C323       C1130   1.408       .  A
C323        C330   1.439       .  S
C324        C325   1.413       .  A
C325       C1134   1.406       .  A
C325        H328   1.085       .  S
C326       C1133   1.406   1_545  A
C326        C329   1.440       .  S
C329        N331   1.156       .  T
C330        N332   1.156       .  T
C333        C334   1.403       .  A
C333        C338   1.414       .  A
C334        C739   1.398       .  A
C334        H339   1.085       .  S
C335        C336   1.412       .  A
C335        C738   1.398   1_554  A
C335        C342   1.444       .  S
C336        C337   1.402       .  A
C337        C742   1.403   1_554  A
C337        H340   1.085       .  S
C338        C741   1.403       .  A
C338        C341   1.441       .  S
C341        N343   1.157       .  T
C342        N344   1.157       .  T
C345        C346   1.398       .  A
C345        C350   1.415       .  A
C346       C1963   1.397       .  A
C346        H351   1.085       .  S
C347        C348   1.425       .  A
C347       C1962   1.397   1_455  A
C347        C354   1.444       .  S
C348        C349   1.408       .  A
C349       C1966   1.394   1_455  A
C349        H352   1.083       .  S
C350       C1965   1.394       .  A
C350        C353   1.446       .  S
C353        N355   1.158       .  T
C354        N356   1.158       .  T
C357        C358   1.404       .  A
C357        C362   1.423       .  A
C358        C359   1.395       .  A
C358        H363   1.085       .  S
C359        C360   1.424       .  A
C359        C366   1.447       .  S
C360        C361   1.405       .  A
C361        C362   1.405       .  A
C361        H364   1.081       .  S
C362        C365   1.443       .  S
C365        N367   1.158       .  T
C366        N368   1.157       .  T
C369        C370   1.398       .  A
C369        C374   1.414       .  A
C370       C1179   1.404   1_545  A
C370        H375   1.085       .  S
C371        C372   1.427       .  A
C371       C1178   1.404       .  A
C371        C378   1.443       .  S
C372        C373   1.408       .  A
C373       C1182   1.391       .  A
C373        H376   1.082       .  S
C374       C1181   1.391   1_545  A
C374        C377   1.447       .  S
C377        N379   1.158       .  T
C378        N380   1.158       .  T
C381        C382   1.404       .  A
C381        C386   1.418       .  A
C382        C787   1.407       .  A
C382        H387   1.084       .  S
C383        C384   1.409       .  A
C383        C786   1.407   1_554  A
C383        C390   1.443       .  S
C384        C385   1.397       .  A
C385        C790   1.393   1_554  A
C385        H388   1.085       .  S
C386        C789   1.393       .  A
C386        C389   1.446       .  S
C389        N391   1.158       .  T
C390        N392   1.157       .  T
C393        C394   1.416       .  A
C393        C398   1.413       .  A
C394        C395   1.406       .  A
C394        H399   1.076       .  S
C395        C396   1.418       .  A
C395        C402   1.440       .  S
C396        C397   1.414       .  A
C397        C398   1.397       .  A
C397        H400   1.086       .  S
C398        C401   1.443       .  S
C401        N403   1.156       .  T
C402        N404   1.158       .  T
O405        C420   1.262       .  A
O405       Al413   1.926       .  S
C406        O416   1.260       .  A
C406        O407   1.261       .  A
C406        C537   1.482       .  S
O407       Al409   1.884       .  S
O408        C410   1.256       .  A
O408       Al409   1.871       .  S
Al409       O417   1.876       .  S
Al409       O419   1.878       .  S
Al409       O418   1.771       .  S
C410        O423   1.267       .  A
C410        C518   1.469       .  S
O411        C421   1.263       .  A
O411       Al413   1.891       .  S
O412        C425   1.263       .  A
O412       Al422   1.885       .  S
Al413       O426   1.926       .  S
Al413       O423   1.943       .  S
Al413       O418   1.791       .  S
O414        C421   1.258       .  A
O414       Al422   1.906       .  S
O415        C424   1.264       .  A
O415       Al422   1.937       .  S
O416       Al422   1.927       .  S
O417        C424   1.256       .  A
O418       Al422   1.794       .  S
O419        C420   1.258       .  A
C420        C561   1.478       .  S
C421        C470   1.461       .  S
C424        C506   1.470       .  S
C425        O426   1.263       .  A
C425        C482   1.467       .  S
C427        C428   1.537       .  S
C427        C433   1.537       .  S
C427        C431   1.541       .  S
C427        C797   1.546       .  S
C428        H435   1.087       .  S
C428        C429   1.364       .  D
C429        C788   1.477       .  S
C429        C430   1.529       .  S
C430        C434   1.542       .  S
C430        C432   1.536       .  S
C430        H436   1.111       .  S
C431        H437   1.079       .  S
C431        C432   1.363       .  D
C432        C773   1.485       .  S
C433        H438   1.086       .  S
C433        C434   1.372       .  D
C434        C590   1.473       .  S
C439        C440   1.545       .  S
C439        C445   1.528       .  S
C439        C443   1.534       .  S
C439        C761   1.539       .  S
C440        H447   1.086       .  S
C440        C441   1.367       .  D
C441        C737   1.485       .  S
C441        C442   1.534       .  S
C442        C446   1.537       .  S
C442        C444   1.544       .  S
C442        H448   1.110       .  S
C443        H449   1.077       .  S
C443        C444   1.364       .  D
C444        C749   1.483       .  S
C445        H450   1.087       .  S
C445        C446   1.368       .  D
C446        C576   1.470       .  S
C451        C452   1.506       .  S
C451        C457   1.521       .  S
C451        C455   1.558       .  S
C451        C713   1.534       .  S
C452        H459   1.088       .  S
C452        C453   1.358       .  D
C453        C572   1.483       .  S
C453        C454   1.557       .  S
C454        C458   1.549       .  S
C454        C456   1.547       .  S
C454        H460   1.110       .  S
C455        H461   1.083       .  S
C455        C456   1.386       .  D
C456        C725   1.508       .  S
C457        H462   1.088       .  S
C457        C458   1.358       .  D
C458        C785   1.482       .  S
C463        C464   1.521       .  S
C463        C469   1.527       .  S
C463        C467   1.532       .  S
C463        C752   1.529       .  S
C464        H471   1.084       .  S
C464        C465   1.368       .  D
C465        C701   1.504       .  S
C465        C466   1.559       .  S
C466        C470   1.542       .  S
C466        C468   1.566       .  S
C466        H472   1.109       .  S
C467        H473   1.086       .  S
C467        C468   1.367       .  D
C468        C728   1.508       .  S
C469        H474   1.085       .  S
C469        C470   1.357       .  D
C475        C476   1.528       .  S
C475        C481   1.527       .  S
C475        C479   1.541       .  S
C475        C776   1.535       .  S
C476        H483   1.086       .  S
C476        C477   1.367       .  D
C477        C704   1.491       .  S
C477        C478   1.548       .  S
C478        C482   1.546       .  S
C478        C480   1.554       .  S
C478        H484   1.110       .  S
C479        H485   1.085       .  S
C479        C480   1.366       .  D
C480        C689   1.502       .  S
C481        H486   1.084       .  S
C481        C482   1.363       .  D
C487        C488   1.516       .  S
C487        C493   1.524       .  S
C487        C491   1.546       .  S
C487        C680   1.535       .  S
C488        H495   1.087       .  S
C488        C489   1.359       .  D
C489        C586   1.480       .  S
C489        C490   1.550       .  S
C490        C494   1.543       .  S
C490        C492   1.556       .  S
C490        H496   1.110       .  S
C491        H497   1.084       .  S
C491        C492   1.381       .  D
C492        C692   1.502       .  S
C493        H498   1.088       .  S
C493        C494   1.361       .  D
C494        C740   1.483       .  S
C499        C500   1.533       .  S
C499        C505   1.544       .  S
C499        C503   1.536       .  S
C499        C677   1.538       .  S
C500        H507   1.087       .  S
C500        C501   1.364       .  D
C501        C665   1.479       .  S
C501        C502   1.537       .  S
C502        C506   1.533       .  S
C502        C504   1.536       .  S
C502        H508   1.111       .  S
C503        H509   1.086       .  S
C503        C504   1.365       .  D
C504        C653   1.469       .  S
C505        H510   1.084       .  S
C505        C506   1.368       .  D
C511        C512   1.543       .  S
C511        C517   1.534       .  S
C511        C515   1.536       .  S
C511        C716   1.542       .  S
C512        H519   1.087       .  S
C512        C513   1.368       .  D
C513        C629   1.477       .  S
C513        C514   1.536       .  S
C514        C518   1.532       .  S
C514        C516   1.532       .  S
C514        H520   1.111       .  S
C515        H521   1.078       .  S
C515        C516   1.361       .  D
C516        C641   1.473       .  S
C517        H522   1.087       .  S
C517        C518   1.370       .  D
C523        C524   1.522       .  S
C523        C529   1.524       .  S
C523        C527   1.545       .  S
C523        C644   1.534       .  S
C524        H531   1.088       .  S
C524        C525   1.359       .  D
C525        C605   1.492       .  S
C525        C526   1.547       .  S
C526        C530   1.550       .  S
C526        C528   1.550       .  S
C526        H532   1.109       .  S
C527        H533   1.085       .  S
C527        C528   1.370       .  D
C528        C620   1.506       .  S
C529        H534   1.076       .  S
C529        C530   1.365       .  D
C530        C587   1.466       .  S
C535        C536   1.509       .  S
C535        C541   1.522       .  S
C535        C539   1.551       .  S
C535        C764   1.533       .  S
C536        H543   1.088       .  S
C536        C537   1.360       .  D
C537        C538   1.554       .  S
C538        C542   1.552       .  S
C538        C540   1.552       .  S
C538        H544   1.108       .  S
C539        H545   1.083       .  S
C539        C540   1.383       .  D
C540        C617   1.509       .  S
C541        H546   1.088       .  S
C541        C542   1.359       .  D
C542        C668   1.482       .  S
C547        C548   1.526       .  S
C547        C553   1.534       .  S
C547        C551   1.536       .  S
C547        C656   1.534       .  S
C548        H555   1.087       .  S
C548        C549   1.362       .  D
C549        C608   1.477       .  S
C549        C550   1.552       .  S
C550        C554   1.536       .  S
C550        C552   1.548       .  S
C550        H556   1.107       .  S
C551        H557   1.084       .  S
C551        C552   1.371       .  D
C552        C593   1.506       .  S
C553        H558   1.079       .  S
C553        C554   1.360       .  D
C554        C591   1.462       .  S
C559        C560   1.525       .  S
C559        C565   1.528       .  S
C559        C563   1.549       .  S
C559        C800   1.547       .  S
C560        H567   1.087       .  S
C560        C561   1.364       .  D
C561        C562   1.540       .  S
C562        C566   1.543       .  S
C562        C564   1.548       .  S
C562        H568   1.110       .  S
C563        H569   1.071       .  S
C563        C564   1.379       .  D
C564        C596   1.502       .  S
C565        H570   1.087       .  S
C565        C566   1.359       .  D
C566        C632   1.477       .  S
O571        C586   1.259       .  A
O571       Al579   1.920       .  S
C572        O582   1.260       .  A
C572        O573   1.264       .  A
O573       Al575   1.889       .  S
O574        C576   1.256       .  A
O574       Al575   1.869       .  S
Al575       O583   1.887       .  S
Al575       O585   1.891       .  S
Al575       O584   1.764       .  S
C576        O589   1.267       .  A
O577        C587   1.261       .  A
O577       Al579   1.881       .  S
O578        C591   1.259       .  A
O578       Al588   1.875       .  S
Al579       O592   1.926       .  S
Al579       O589   1.952       .  S
Al579       O584   1.795       .  S
O580        C587   1.261       .  A
O580       Al588   1.924       .  S
O581        C590   1.266       .  A
O581       Al588   1.938       .  S
O582       Al588   1.924       .  S
O583        C590   1.259       .  A
O584       Al588   1.793       .  S
O585        C586   1.263       .  A
C591        O592   1.264       .  A
C593        C594   1.410       .  A
C593        C598   1.417       .  A
C594       C2211   1.401       .  A
C594        H599   1.085       .  S
C595       C2210   1.401   1_455  A
C595        C596   1.414       .  A
C595        C602   1.444       .  S
C596        C597   1.406       .  A
C597       C2214   1.406   1_455  A
C597        H600   1.083       .  S
C598       C2213   1.406       .  A
C598        C601   1.442       .  S
C601        N603   1.158       .  T
C602        N604   1.157       .  T
C605        C606   1.407       .  A
C605        C610   1.411       .  A
C606        H611   1.085       .  S
C607        C608   1.405       .  A
C607        C614   1.443       .  S
C608        C609   1.409       .  A
C609        H612   1.084       .  S
C610        C613   1.442       .  S
C613        N615   1.157       .  T
C614        N616   1.156       .  T
C617        C618   1.406       .  A
C617        C622   1.421       .  A
C618       C1427   1.404       .  A
C618        H623   1.085       .  S
C619       C1426   1.404   1_545  A
C619        C620   1.418       .  A
C619        C626   1.441       .  S
C620        C621   1.404       .  A
C621       C1430   1.407   1_545  A
C621        H624   1.084       .  S
C622       C1429   1.407       .  A
C622        C625   1.441       .  S
C625        N627   1.157       .  T
C626        N628   1.156       .  T
C629        C630   1.398       .  A
C629        C634   1.408       .  A
C630        H635   1.084       .  S
C631        C632   1.411       .  A
C631        C638   1.440       .  S
C632        C633   1.404       .  A
C633        H636   1.084       .  S
C634        C637   1.442       .  S
C637        N639   1.157       .  T
C638        N640   1.156       .  T
C641        C642   1.398       .  A
C641        C646   1.405       .  A
C642       C2259   1.403   1_455  A
C642        H647   1.086       .  S
C643       C2258   1.403       .  A
C643        C644   1.426       .  A
C643        C650   1.440       .  S
C644        C645   1.414       .  A
C645       C2262   1.388       .  A
C645        H648   1.085       .  S
C646       C2261   1.388   1_455  A
C646        C649   1.447       .  S
C649        N651   1.157       .  T
C650        N652   1.158       .  T
C653        C654   1.393       .  A
C653        C658   1.400       .  A
C654       C1463   1.390       .  A
C654        H659   1.083       .  S
C655       C1462   1.390   1_545  A
C655        C656   1.422       .  A
C655        C662   1.441       .  S
C656        C657   1.416       .  A
C657       C1466   1.398   1_545  A
C657        H660   1.073       .  S
C658       C1465   1.398       .  A
C658        C661   1.441       .  S
C661        N663   1.156       .  T
C662        N664   1.156       .  T
C665        C666   1.398       .  A
C665        C670   1.409       .  A
C666        H671   1.083       .  S
C667        C668   1.416       .  A
C667        C674   1.446       .  S
C668        C669   1.404       .  A
C669        H672   1.084       .  S
C670        C673   1.442       .  S
C673        N675   1.157       .  T
C674        N676   1.157       .  T
C677        C678   1.403       .  A
C677        C682   1.424       .  A
C678        C679   1.394       .  A
C678        H683   1.080       .  S
C679        C680   1.427       .  A
C679        C686   1.447       .  S
C680        C681   1.404       .  A
C681        C682   1.405       .  A
C681        H684   1.082       .  S
C682        C685   1.444       .  S
C685        N687   1.157       .  T
C686        N688   1.157       .  T
C689        C690   1.407       .  A
C689        C694   1.413       .  A
C690       C2307   1.403   1_455  A
C690        H695   1.085       .  S
C691       C2306   1.403       .  A
C691        C692   1.413       .  A
C691        C698   1.445       .  S
C692        C693   1.409       .  A
C693       C2310   1.414       .  A
C693        H696   1.085       .  S
C694       C2309   1.414   1_455  A
C694        C697   1.442       .  S
C697        N699   1.157       .  T
C698        N700   1.157       .  T
C701        C702   1.401       .  A
C701        C706   1.421       .  A
C702        H707   1.080       .  S
C703        C704   1.417       .  A
C703        C710   1.445       .  S
C704        C705   1.399       .  A
C705        H708   1.083       .  S
C706        C709   1.445       .  S
C709        N711   1.157       .  T
C710        N712   1.157       .  T
C713        C714   1.403       .  A
C713        C718   1.425       .  A
C714        C715   1.407       .  A
C714        H719   1.082       .  S
C715        C716   1.427       .  A
C715        C722   1.441       .  S
C716        C717   1.402       .  A
C717        C718   1.395       .  A
C717        H720   1.085       .  S
C718        C721   1.447       .  S
C721        N723   1.158       .  T
C722        N724   1.157       .  T
C725        C726   1.408       .  A
C725        C730   1.410       .  A
C726       C1535   1.408   1_545  A
C726        H731   1.083       .  S
C727       C1534   1.408       .  A
C727        C728   1.413       .  A
C727        C734   1.439       .  S
C728        C729   1.413       .  A
C729       C1538   1.406       .  A
C729        H732   1.085       .  S
C730       C1537   1.406   1_545  A
C730        C733   1.440       .  S
C733        N735   1.156       .  T
C734        N736   1.156       .  T
C737        C738   1.403       .  A
C737        C742   1.414       .  A
C738        H743   1.085       .  S
C739        C740   1.412       .  A
C739        C746   1.444       .  S
C740        C741   1.402       .  A
C741        H744   1.085       .  S
C742        C745   1.441       .  S
C745        N747   1.157       .  T
C746        N748   1.157       .  T
C749        C750   1.398       .  A
C749        C754   1.415       .  A
C750       C2367   1.397       .  A
C750        H755   1.085       .  S
C751       C2366   1.397   1_455  A
C751        C752   1.425       .  A
C751        C758   1.444       .  S
C752        C753   1.408       .  A
C753       C2370   1.394   1_455  A
C753        H756   1.083       .  S
C754       C2369   1.394       .  A
C754        C757   1.446       .  S
C757        N759   1.158       .  T
C758        N760   1.158       .  T
C761        C762   1.404       .  A
C761        C766   1.423       .  A
C762        C763   1.395       .  A
C762        H767   1.085       .  S
C763        C764   1.424       .  A
C763        C770   1.447       .  S
C764        C765   1.405       .  A
C765        C766   1.405       .  A
C765        H768   1.081       .  S
C766        C769   1.443       .  S
C769        N771   1.158       .  T
C770        N772   1.157       .  T
C773        C774   1.398       .  A
C773        C778   1.414       .  A
C774       C1583   1.404   1_545  A
C774        H779   1.085       .  S
C775       C1582   1.404       .  A
C775        C776   1.427       .  A
C775        C782   1.443       .  S
C776        C777   1.408       .  A
C777       C1586   1.391       .  A
C777        H780   1.082       .  S
C778       C1585   1.391   1_545  A
C778        C781   1.447       .  S
C781        N783   1.158       .  T
C782        N784   1.158       .  T
C785        C786   1.404       .  A
C785        C790   1.418       .  A
C786        H791   1.084       .  S
C787        C788   1.409       .  A
C787        C794   1.443       .  S
C788        C789   1.397       .  A
C789        H792   1.085       .  S
C790        C793   1.446       .  S
C793        N795   1.158       .  T
C794        N796   1.157       .  T
C797        C798   1.416       .  A
C797        C802   1.413       .  A
C798        C799   1.406       .  A
C798        H803   1.076       .  S
C799        C800   1.418       .  A
C799        C806   1.440       .  S
C800        C801   1.414       .  A
C801        C802   1.397       .  A
C801        H804   1.086       .  S
C802        C805   1.443       .  S
C805        N807   1.156       .  T
C806        N808   1.158       .  T
O809        C824   1.262       .  A
O809       Al817   1.926       .  S
C810        O820   1.260       .  A
C810        O811   1.261       .  A
C810        C941   1.482       .  S
O811       Al813   1.884       .  S
O812        C814   1.256       .  A
O812       Al813   1.871       .  S
Al813       O821   1.876       .  S
Al813       O823   1.878       .  S
Al813       O822   1.771       .  S
C814        O827   1.267       .  A
C814        C922   1.469       .  S
O815        C825   1.263       .  A
O815       Al817   1.891       .  S
O816        C829   1.263       .  A
O816       Al826   1.885       .  S
Al817       O830   1.926       .  S
Al817       O827   1.943       .  S
Al817       O822   1.791       .  S
O818        C825   1.258       .  A
O818       Al826   1.906       .  S
O819        C828   1.264       .  A
O819       Al826   1.937       .  S
O820       Al826   1.927       .  S
O821        C828   1.256       .  A
O822       Al826   1.794       .  S
O823        C824   1.258       .  A
C824        C965   1.478       .  S
C825        C874   1.461       .  S
C828        C910   1.470       .  S
C829        O830   1.263       .  A
C829        C886   1.467       .  S
C831        C832   1.537       .  S
C831        C837   1.537       .  S
C831        C835   1.541       .  S
C831       C1201   1.546       .  S
C832        H839   1.087       .  S
C832        C833   1.364       .  D
C833       C1192   1.477       .  S
C833        C834   1.529       .  S
C834        C838   1.542       .  S
C834        C836   1.536       .  S
C834        H840   1.111       .  S
C835        H841   1.079       .  S
C835        C836   1.363       .  D
C836       C1177   1.485       .  S
C837        H842   1.086       .  S
C837        C838   1.372       .  D
C838        C994   1.473       .  S
C843        C844   1.545       .  S
C843        C849   1.528       .  S
C843        C847   1.534       .  S
C843       C1165   1.539       .  S
C844        H851   1.086       .  S
C844        C845   1.367       .  D
C845       C1141   1.485       .  S
C845        C846   1.534       .  S
C846        C850   1.537       .  S
C846        C848   1.544       .  S
C846        H852   1.110       .  S
C847        H853   1.077       .  S
C847        C848   1.364       .  D
C848       C1153   1.483       .  S
C849        H854   1.087       .  S
C849        C850   1.368       .  D
C850        C980   1.470       .  S
C855        C856   1.506       .  S
C855        C861   1.521       .  S
C855        C859   1.558       .  S
C855       C1117   1.534       .  S
C856        H863   1.088       .  S
C856        C857   1.358       .  D
C857        C976   1.483       .  S
C857        C858   1.557       .  S
C858        C862   1.549       .  S
C858        C860   1.547       .  S
C858        H864   1.110       .  S
C859        H865   1.083       .  S
C859        C860   1.386       .  D
C860       C1129   1.508       .  S
C861        H866   1.088       .  S
C861        C862   1.358       .  D
C862       C1189   1.482       .  S
C867        C868   1.521       .  S
C867        C873   1.527       .  S
C867        C871   1.532       .  S
C867       C1156   1.529       .  S
C868        H875   1.084       .  S
C868        C869   1.368       .  D
C869       C1105   1.504       .  S
C869        C870   1.559       .  S
C870        C874   1.542       .  S
C870        C872   1.566       .  S
C870        H876   1.109       .  S
C871        H877   1.086       .  S
C871        C872   1.367       .  D
C872       C1132   1.508       .  S
C873        H878   1.085       .  S
C873        C874   1.357       .  D
C879        C880   1.528       .  S
C879        C885   1.527       .  S
C879        C883   1.541       .  S
C879       C1180   1.535       .  S
C880        H887   1.086       .  S
C880        C881   1.367       .  D
C881       C1108   1.491       .  S
C881        C882   1.548       .  S
C882        C886   1.546       .  S
C882        C884   1.554       .  S
C882        H888   1.110       .  S
C883        H889   1.085       .  S
C883        C884   1.366       .  D
C884       C1093   1.502       .  S
C885        H890   1.084       .  S
C885        C886   1.363       .  D
C891        C892   1.516       .  S
C891        C897   1.524       .  S
C891        C895   1.546       .  S
C891       C1084   1.535       .  S
C892        H899   1.087       .  S
C892        C893   1.359       .  D
C893        C990   1.480       .  S
C893        C894   1.550       .  S
C894        C898   1.543       .  S
C894        C896   1.556       .  S
C894        H900   1.110       .  S
C895        H901   1.084       .  S
C895        C896   1.381       .  D
C896       C1096   1.502       .  S
C897        H902   1.088       .  S
C897        C898   1.361       .  D
C898       C1144   1.483       .  S
C903        C904   1.533       .  S
C903        C909   1.544       .  S
C903        C907   1.536       .  S
C903       C1081   1.538       .  S
C904        H911   1.087       .  S
C904        C905   1.364       .  D
C905       C1069   1.479       .  S
C905        C906   1.537       .  S
C906        C910   1.533       .  S
C906        C908   1.536       .  S
C906        H912   1.111       .  S
C907        H913   1.086       .  S
C907        C908   1.365       .  D
C908       C1057   1.469       .  S
C909        H914   1.084       .  S
C909        C910   1.368       .  D
C915        C916   1.543       .  S
C915        C921   1.534       .  S
C915        C919   1.536       .  S
C915       C1120   1.542       .  S
C916        H923   1.087       .  S
C916        C917   1.368       .  D
C917       C1033   1.477       .  S
C917        C918   1.536       .  S
C918        C922   1.532       .  S
C918        C920   1.532       .  S
C918        H924   1.111       .  S
C919        H925   1.078       .  S
C919        C920   1.361       .  D
C920       C1045   1.473       .  S
C921        H926   1.087       .  S
C921        C922   1.370       .  D
C927        C928   1.522       .  S
C927        C933   1.524       .  S
C927        C931   1.545       .  S
C927       C1048   1.534       .  S
C928        H935   1.088       .  S
C928        C929   1.359       .  D
C929       C1009   1.492       .  S
C929        C930   1.547       .  S
C930        C934   1.550       .  S
C930        C932   1.550       .  S
C930        H936   1.109       .  S
C931        H937   1.085       .  S
C931        C932   1.370       .  D
C932       C1024   1.506       .  S
C933        H938   1.076       .  S
C933        C934   1.365       .  D
C934        C991   1.466       .  S
C939        C940   1.509       .  S
C939        C945   1.522       .  S
C939        C943   1.551       .  S
C939       C1168   1.533       .  S
C940        H947   1.088       .  S
C940        C941   1.360       .  D
C941        C942   1.554       .  S
C942        C946   1.552       .  S
C942        C944   1.552       .  S
C942        H948   1.108       .  S
C943        H949   1.083       .  S
C943        C944   1.383       .  D
C944       C1021   1.509       .  S
C945        H950   1.088       .  S
C945        C946   1.359       .  D
C946       C1072   1.482       .  S
C951        C952   1.526       .  S
C951        C957   1.534       .  S
C951        C955   1.536       .  S
C951       C1060   1.534       .  S
C952        H959   1.087       .  S
C952        C953   1.362       .  D
C953       C1012   1.477       .  S
C953        C954   1.552       .  S
C954        C958   1.536       .  S
C954        C956   1.548       .  S
C954        H960   1.107       .  S
C955        H961   1.084       .  S
C955        C956   1.371       .  D
C956        C997   1.506       .  S
C957        H962   1.079       .  S
C957        C958   1.360       .  D
C958        C995   1.462       .  S
C963        C964   1.525       .  S
C963        C969   1.528       .  S
C963        C967   1.549       .  S
C963       C1204   1.547       .  S
C964        H971   1.087       .  S
C964        C965   1.364       .  D
C965        C966   1.540       .  S
C966        C970   1.543       .  S
C966        C968   1.548       .  S
C966        H972   1.110       .  S
C967        H973   1.071       .  S
C967        C968   1.379       .  D
C968       C1000   1.502       .  S
C969        H974   1.087       .  S
C969        C970   1.359       .  D
C970       C1036   1.477       .  S
O975        C990   1.259       .  A
O975       Al983   1.920       .  S
C976        O986   1.260       .  A
C976        O977   1.264       .  A
O977       Al979   1.889       .  S
O978        C980   1.256       .  A
O978       Al979   1.869       .  S
Al979       O987   1.887       .  S
Al979       O989   1.891       .  S
Al979       O988   1.764       .  S
C980        O993   1.267       .  A
O981        C991   1.261       .  A
O981       Al983   1.881       .  S
O982        C995   1.259       .  A
O982       Al992   1.875       .  S
Al983       O996   1.926       .  S
Al983       O993   1.952       .  S
Al983       O988   1.795       .  S
O984        C991   1.261       .  A
O984       Al992   1.924       .  S
O985        C994   1.266       .  A
O985       Al992   1.938       .  S
O986       Al992   1.924       .  S
O987        C994   1.259       .  A
O988       Al992   1.793       .  S
O989        C990   1.263       .  A
C995        O996   1.264       .  A
C997        C998   1.410       .  A
C997       C1002   1.417       .  A
C998       C2615   1.401       .  A
C998       H1003   1.085       .  S
C999       C2614   1.401   1_455  A
C999       C1000   1.414       .  A
C999       C1006   1.444       .  S
C1000      C1001   1.406       .  A
C1001      C2618   1.406   1_455  A
C1001      H1004   1.083       .  S
C1002      C2617   1.406       .  A
C1002      C1005   1.442       .  S
C1005      N1007   1.158       .  T
C1006      N1008   1.157       .  T
C1009      C1010   1.407       .  A
C1009      C1014   1.411       .  A
C1010      C1415   1.384       .  A
C1010      H1015   1.085       .  S
C1011      C1414   1.384   1_554  A
C1011      C1012   1.405       .  A
C1011      C1018   1.443       .  S
C1012      C1013   1.409       .  A
C1013      C1418   1.413   1_554  A
C1013      H1016   1.084       .  S
C1014      C1417   1.413       .  A
C1014      C1017   1.442       .  S
C1017      N1019   1.157       .  T
C1018      N1020   1.156       .  T
C1021      C1022   1.406       .  A
C1021      C1026   1.421       .  A
C1022      H1027   1.085       .  S
C1023      C1024   1.418       .  A
C1023      C1030   1.441       .  S
C1024      C1025   1.404       .  A
C1025      H1028   1.084       .  S
C1026      C1029   1.441       .  S
C1029      N1031   1.157       .  T
C1030      N1032   1.156       .  T
C1033      C1034   1.398       .  A
C1033      C1038   1.408       .  A
C1034      C1439   1.397       .  A
C1034      H1039   1.084       .  S
C1035      C1438   1.397   1_554  A
C1035      C1036   1.411       .  A
C1035      C1042   1.440       .  S
C1036      C1037   1.404       .  A
C1037      C1442   1.403   1_554  A
C1037      H1040   1.084       .  S
C1038      C1441   1.403       .  A
C1038      C1041   1.442       .  S
C1041      N1043   1.157       .  T
C1042      N1044   1.156       .  T
C1045      C1046   1.398       .  A
C1045      C1050   1.405       .  A
C1046      C2663   1.403   1_455  A
C1046      H1051   1.086       .  S
C1047      C2662   1.403       .  A
C1047      C1048   1.426       .  A
C1047      C1054   1.440       .  S
C1048      C1049   1.414       .  A
C1049      C2666   1.388       .  A
C1049      H1052   1.085       .  S
C1050      C2665   1.388   1_455  A
C1050      C1053   1.447       .  S
C1053      N1055   1.157       .  T
C1054      N1056   1.158       .  T
C1057      C1058   1.393       .  A
C1057      C1062   1.400       .  A
C1058      H1063   1.083       .  S
C1059      C1060   1.422       .  A
C1059      C1066   1.441       .  S
C1060      C1061   1.416       .  A
C1061      H1064   1.073       .  S
C1062      C1065   1.441       .  S
C1065      N1067   1.156       .  T
C1066      N1068   1.156       .  T
C1069      C1070   1.398       .  A
C1069      C1074   1.409       .  A
C1070      C1475   1.395   1_554  A
C1070      H1075   1.083       .  S
C1071      C1474   1.395       .  A
C1071      C1072   1.416       .  A
C1071      C1078   1.446       .  S
C1072      C1073   1.404       .  A
C1073      C1478   1.407       .  A
C1073      H1076   1.084       .  S
C1074      C1477   1.407   1_554  A
C1074      C1077   1.442       .  S
C1077      N1079   1.157       .  T
C1078      N1080   1.157       .  T
C1081      C1082   1.403       .  A
C1081      C1086   1.424       .  A
C1082      C1083   1.394       .  A
C1082      H1087   1.080       .  S
C1083      C1084   1.427       .  A
C1083      C1090   1.447       .  S
C1084      C1085   1.404       .  A
C1085      C1086   1.405       .  A
C1085      H1088   1.082       .  S
C1086      C1089   1.444       .  S
C1089      N1091   1.157       .  T
C1090      N1092   1.157       .  T
C1093      C1094   1.407       .  A
C1093      C1098   1.413       .  A
C1094      C2711   1.403   1_455  A
C1094      H1099   1.085       .  S
C1095      C2710   1.403       .  A
C1095      C1096   1.413       .  A
C1095      C1102   1.445       .  S
C1096      C1097   1.409       .  A
C1097      C2714   1.414       .  A
C1097      H1100   1.085       .  S
C1098      C2713   1.414   1_455  A
C1098      C1101   1.442       .  S
C1101      N1103   1.157       .  T
C1102      N1104   1.157       .  T
C1105      C1106   1.401       .  A
C1105      C1110   1.421       .  A
C1106      C1511   1.404       .  A
C1106      H1111   1.080       .  S
C1107      C1510   1.404   1_554  A
C1107      C1108   1.417       .  A
C1107      C1114   1.445       .  S
C1108      C1109   1.399       .  A
C1109      C1514   1.399   1_554  A
C1109      H1112   1.083       .  S
C1110      C1513   1.399       .  A
C1110      C1113   1.445       .  S
C1113      N1115   1.157       .  T
C1114      N1116   1.157       .  T
C1117      C1118   1.403       .  A
C1117      C1122   1.425       .  A
C1118      C1119   1.407       .  A
C1118      H1123   1.082       .  S
C1119      C1120   1.427       .  A
C1119      C1126   1.441       .  S
C1120      C1121   1.402       .  A
C1121      C1122   1.395       .  A
C1121      H1124   1.085       .  S
C1122      C1125   1.447       .  S
C1125      N1127   1.158       .  T
C1126      N1128   1.157       .  T
C1129      C1130   1.408       .  A
C1129      C1134   1.410       .  A
C1130      H1135   1.083       .  S
C1131      C1132   1.413       .  A
C1131      C1138   1.439       .  S
C1132      C1133   1.413       .  A
C1133      H1136   1.085       .  S
C1134      C1137   1.440       .  S
C1137      N1139   1.156       .  T
C1138      N1140   1.156       .  T
C1141      C1142   1.403       .  A
C1141      C1146   1.414       .  A
C1142      C1547   1.398       .  A
C1142      H1147   1.085       .  S
C1143      C1546   1.398   1_554  A
C1143      C1144   1.412       .  A
C1143      C1150   1.444       .  S
C1144      C1145   1.402       .  A
C1145      C1550   1.403   1_554  A
C1145      H1148   1.085       .  S
C1146      C1549   1.403       .  A
C1146      C1149   1.441       .  S
C1149      N1151   1.157       .  T
C1150      N1152   1.157       .  T
C1153      C1154   1.398       .  A
C1153      C1158   1.415       .  A
C1154      C2771   1.397       .  A
C1154      H1159   1.085       .  S
C1155      C2770   1.397   1_455  A
C1155      C1156   1.425       .  A
C1155      C1162   1.444       .  S
C1156      C1157   1.408       .  A
C1157      C2774   1.394   1_455  A
C1157      H1160   1.083       .  S
C1158      C2773   1.394       .  A
C1158      C1161   1.446       .  S
C1161      N1163   1.158       .  T
C1162      N1164   1.158       .  T
C1165      C1166   1.404       .  A
C1165      C1170   1.423       .  A
C1166      C1167   1.395       .  A
C1166      H1171   1.085       .  S
C1167      C1168   1.424       .  A
C1167      C1174   1.447       .  S
C1168      C1169   1.405       .  A
C1169      C1170   1.405       .  A
C1169      H1172   1.081       .  S
C1170      C1173   1.443       .  S
C1173      N1175   1.158       .  T
C1174      N1176   1.157       .  T
C1177      C1178   1.398       .  A
C1177      C1182   1.414       .  A
C1178      H1183   1.085       .  S
C1179      C1180   1.427       .  A
C1179      C1186   1.443       .  S
C1180      C1181   1.408       .  A
C1181      H1184   1.082       .  S
C1182      C1185   1.447       .  S
C1185      N1187   1.158       .  T
C1186      N1188   1.158       .  T
C1189      C1190   1.404       .  A
C1189      C1194   1.418       .  A
C1190      C1595   1.407       .  A
C1190      H1195   1.084       .  S
C1191      C1594   1.407   1_554  A
C1191      C1192   1.409       .  A
C1191      C1198   1.443       .  S
C1192      C1193   1.397       .  A
C1193      C1598   1.393   1_554  A
C1193      H1196   1.085       .  S
C1194      C1597   1.393       .  A
C1194      C1197   1.446       .  S
C1197      N1199   1.158       .  T
C1198      N1200   1.157       .  T
C1201      C1202   1.416       .  A
C1201      C1206   1.413       .  A
C1202      C1203   1.406       .  A
C1202      H1207   1.076       .  S
C1203      C1204   1.418       .  A
C1203      C1210   1.440       .  S
C1204      C1205   1.414       .  A
C1205      C1206   1.397       .  A
C1205      H1208   1.086       .  S
C1206      C1209   1.443       .  S
C1209      N1211   1.156       .  T
C1210      N1212   1.158       .  T
O1213      C1228   1.262       .  A
O1213     Al1221   1.926       .  S
C1214      O1224   1.260       .  A
C1214      O1215   1.261       .  A
C1214      C1345   1.482       .  S
O1215     Al1217   1.884       .  S
O1216      C1218   1.256       .  A
O1216     Al1217   1.871       .  S
Al1217     O1225   1.876       .  S
Al1217     O1227   1.878       .  S
Al1217     O1226   1.771       .  S
C1218      O1231   1.267       .  A
C1218      C1326   1.469       .  S
O1219      C1229   1.263       .  A
O1219     Al1221   1.891       .  S
O1220      C1233   1.263       .  A
O1220     Al1230   1.885       .  S
Al1221     O1234   1.926       .  S
Al1221     O1231   1.943       .  S
Al1221     O1226   1.791       .  S
O1222      C1229   1.258       .  A
O1222     Al1230   1.906       .  S
O1223      C1232   1.264       .  A
O1223     Al1230   1.937       .  S
O1224     Al1230   1.927       .  S
O1225      C1232   1.256       .  A
O1226     Al1230   1.794       .  S
O1227      C1228   1.258       .  A
C1228      C1369   1.478       .  S
C1229      C1278   1.461       .  S
C1232      C1314   1.470       .  S
C1233      O1234   1.263       .  A
C1233      C1290   1.467       .  S
C1235      C1236   1.537       .  S
C1235      C1241   1.537       .  S
C1235      C1239   1.541       .  S
C1235      C1605   1.546       .  S
C1236      H1243   1.087       .  S
C1236      C1237   1.364       .  D
C1237      C1596   1.477       .  S
C1237      C1238   1.529       .  S
C1238      C1242   1.542       .  S
C1238      C1240   1.536       .  S
C1238      H1244   1.111       .  S
C1239      H1245   1.079       .  S
C1239      C1240   1.363       .  D
C1240      C1581   1.485       .  S
C1241      H1246   1.086       .  S
C1241      C1242   1.372       .  D
C1242      C1398   1.473       .  S
C1247      C1248   1.545       .  S
C1247      C1253   1.528       .  S
C1247      C1251   1.534       .  S
C1247      C1569   1.539       .  S
C1248      H1255   1.086       .  S
C1248      C1249   1.367       .  D
C1249      C1545   1.485       .  S
C1249      C1250   1.534       .  S
C1250      C1254   1.537       .  S
C1250      C1252   1.544       .  S
C1250      H1256   1.110       .  S
C1251      H1257   1.077       .  S
C1251      C1252   1.364       .  D
C1252      C1557   1.483       .  S
C1253      H1258   1.087       .  S
C1253      C1254   1.368       .  D
C1254      C1384   1.470       .  S
C1259      C1260   1.506       .  S
C1259      C1265   1.521       .  S
C1259      C1263   1.558       .  S
C1259      C1521   1.534       .  S
C1260      H1267   1.088       .  S
C1260      C1261   1.358       .  D
C1261      C1380   1.483       .  S
C1261      C1262   1.557       .  S
C1262      C1266   1.549       .  S
C1262      C1264   1.547       .  S
C1262      H1268   1.110       .  S
C1263      H1269   1.083       .  S
C1263      C1264   1.386       .  D
C1264      C1533   1.508       .  S
C1265      H1270   1.088       .  S
C1265      C1266   1.358       .  D
C1266      C1593   1.482       .  S
C1271      C1272   1.521       .  S
C1271      C1277   1.527       .  S
C1271      C1275   1.532       .  S
C1271      C1560   1.529       .  S
C1272      H1279   1.084       .  S
C1272      C1273   1.368       .  D
C1273      C1509   1.504       .  S
C1273      C1274   1.559       .  S
C1274      C1278   1.542       .  S
C1274      C1276   1.566       .  S
C1274      H1280   1.109       .  S
C1275      H1281   1.086       .  S
C1275      C1276   1.367       .  D
C1276      C1536   1.508       .  S
C1277      H1282   1.085       .  S
C1277      C1278   1.357       .  D
C1283      C1284   1.528       .  S
C1283      C1289   1.527       .  S
C1283      C1287   1.541       .  S
C1283      C1584   1.535       .  S
C1284      H1291   1.086       .  S
C1284      C1285   1.367       .  D
C1285      C1512   1.491       .  S
C1285      C1286   1.548       .  S
C1286      C1290   1.546       .  S
C1286      C1288   1.554       .  S
C1286      H1292   1.110       .  S
C1287      H1293   1.085       .  S
C1287      C1288   1.366       .  D
C1288      C1497   1.502       .  S
C1289      H1294   1.084       .  S
C1289      C1290   1.363       .  D
C1295      C1296   1.516       .  S
C1295      C1301   1.524       .  S
C1295      C1299   1.546       .  S
C1295      C1488   1.535       .  S
C1296      H1303   1.087       .  S
C1296      C1297   1.359       .  D
C1297      C1394   1.480       .  S
C1297      C1298   1.550       .  S
C1298      C1302   1.543       .  S
C1298      C1300   1.556       .  S
C1298      H1304   1.110       .  S
C1299      H1305   1.084       .  S
C1299      C1300   1.381       .  D
C1300      C1500   1.502       .  S
C1301      H1306   1.088       .  S
C1301      C1302   1.361       .  D
C1302      C1548   1.483       .  S
C1307      C1308   1.533       .  S
C1307      C1313   1.544       .  S
C1307      C1311   1.536       .  S
C1307      C1485   1.538       .  S
C1308      H1315   1.087       .  S
C1308      C1309   1.364       .  D
C1309      C1473   1.479       .  S
C1309      C1310   1.537       .  S
C1310      C1314   1.533       .  S
C1310      C1312   1.536       .  S
C1310      H1316   1.111       .  S
C1311      H1317   1.086       .  S
C1311      C1312   1.365       .  D
C1312      C1461   1.469       .  S
C1313      H1318   1.084       .  S
C1313      C1314   1.368       .  D
C1319      C1320   1.543       .  S
C1319      C1325   1.534       .  S
C1319      C1323   1.536       .  S
C1319      C1524   1.542       .  S
C1320      H1327   1.087       .  S
C1320      C1321   1.368       .  D
C1321      C1437   1.477       .  S
C1321      C1322   1.536       .  S
C1322      C1326   1.532       .  S
C1322      C1324   1.532       .  S
C1322      H1328   1.111       .  S
C1323      H1329   1.078       .  S
C1323      C1324   1.361       .  D
C1324      C1449   1.473       .  S
C1325      H1330   1.087       .  S
C1325      C1326   1.370       .  D
C1331      C1332   1.522       .  S
C1331      C1337   1.524       .  S
C1331      C1335   1.545       .  S
C1331      C1452   1.534       .  S
C1332      H1339   1.088       .  S
C1332      C1333   1.359       .  D
C1333      C1413   1.492       .  S
C1333      C1334   1.547       .  S
C1334      C1338   1.550       .  S
C1334      C1336   1.550       .  S
C1334      H1340   1.109       .  S
C1335      H1341   1.085       .  S
C1335      C1336   1.370       .  D
C1336      C1428   1.506       .  S
C1337      H1342   1.076       .  S
C1337      C1338   1.365       .  D
C1338      C1395   1.466       .  S
C1343      C1344   1.509       .  S
C1343      C1349   1.522       .  S
C1343      C1347   1.551       .  S
C1343      C1572   1.533       .  S
C1344      H1351   1.088       .  S
C1344      C1345   1.360       .  D
C1345      C1346   1.554       .  S
C1346      C1350   1.552       .  S
C1346      C1348   1.552       .  S
C1346      H1352   1.108       .  S
C1347      H1353   1.083       .  S
C1347      C1348   1.383       .  D
C1348      C1425   1.509       .  S
C1349      H1354   1.088       .  S
C1349      C1350   1.359       .  D
C1350      C1476   1.482       .  S
C1355      C1356   1.526       .  S
C1355      C1361   1.534       .  S
C1355      C1359   1.536       .  S
C1355      C1464   1.534       .  S
C1356      H1363   1.087       .  S
C1356      C1357   1.362       .  D
C1357      C1416   1.477       .  S
C1357      C1358   1.552       .  S
C1358      C1362   1.536       .  S
C1358      C1360   1.548       .  S
C1358      H1364   1.107       .  S
C1359      H1365   1.084       .  S
C1359      C1360   1.371       .  D
C1360      C1401   1.506       .  S
C1361      H1366   1.079       .  S
C1361      C1362   1.360       .  D
C1362      C1399   1.462       .  S
C1367      C1368   1.525       .  S
C1367      C1373   1.528       .  S
C1367      C1371   1.549       .  S
C1367      C1608   1.547       .  S
C1368      H1375   1.087       .  S
C1368      C1369   1.364       .  D
C1369      C1370   1.540       .  S
C1370      C1374   1.543       .  S
C1370      C1372   1.548       .  S
C1370      H1376   1.110       .  S
C1371      H1377   1.071       .  S
C1371      C1372   1.379       .  D
C1372      C1404   1.502       .  S
C1373      H1378   1.087       .  S
C1373      C1374   1.359       .  D
C1374      C1440   1.477       .  S
O1379      C1394   1.259       .  A
O1379     Al1387   1.920       .  S
C1380      O1390   1.260       .  A
C1380      O1381   1.264       .  A
O1381     Al1383   1.889       .  S
O1382      C1384   1.256       .  A
O1382     Al1383   1.869       .  S
Al1383     O1391   1.887       .  S
Al1383     O1393   1.891       .  S
Al1383     O1392   1.764       .  S
C1384      O1397   1.267       .  A
O1385      C1395   1.261       .  A
O1385     Al1387   1.881       .  S
O1386      C1399   1.259       .  A
O1386     Al1396   1.875       .  S
Al1387     O1400   1.926       .  S
Al1387     O1397   1.952       .  S
Al1387     O1392   1.795       .  S
O1388      C1395   1.261       .  A
O1388     Al1396   1.924       .  S
O1389      C1398   1.266       .  A
O1389     Al1396   1.938       .  S
O1390     Al1396   1.924       .  S
O1391      C1398   1.259       .  A
O1392     Al1396   1.793       .  S
O1393      C1394   1.263       .  A
C1399      O1400   1.264       .  A
C1401      C1402   1.410       .  A
C1401      C1406   1.417       .  A
C1402      C3019   1.401       .  A
C1402      H1407   1.085       .  S
C1403      C3018   1.401   1_455  A
C1403      C1404   1.414       .  A
C1403      C1410   1.444       .  S
C1404      C1405   1.406       .  A
C1405      C3022   1.406   1_455  A
C1405      H1408   1.083       .  S
C1406      C3021   1.406       .  A
C1406      C1409   1.442       .  S
C1409      N1411   1.158       .  T
C1410      N1412   1.157       .  T
C1413      C1414   1.407       .  A
C1413      C1418   1.411       .  A
C1414      H1419   1.085       .  S
C1415      C1416   1.405       .  A
C1415      C1422   1.443       .  S
C1416      C1417   1.409       .  A
C1417      H1420   1.084       .  S
C1418      C1421   1.442       .  S
C1421      N1423   1.157       .  T
C1422      N1424   1.156       .  T
C1425      C1426   1.406       .  A
C1425      C1430   1.421       .  A
C1426      H1431   1.085       .  S
C1427      C1428   1.418       .  A
C1427      C1434   1.441       .  S
C1428      C1429   1.404       .  A
C1429      H1432   1.084       .  S
C1430      C1433   1.441       .  S
C1433      N1435   1.157       .  T
C1434      N1436   1.156       .  T
C1437      C1438   1.398       .  A
C1437      C1442   1.408       .  A
C1438      H1443   1.084       .  S
C1439      C1440   1.411       .  A
C1439      C1446   1.440       .  S
C1440      C1441   1.404       .  A
C1441      H1444   1.084       .  S
C1442      C1445   1.442       .  S
C1445      N1447   1.157       .  T
C1446      N1448   1.156       .  T
C1449      C1450   1.398       .  A
C1449      C1454   1.405       .  A
C1450      C3067   1.403   1_455  A
C1450      H1455   1.086       .  S
C1451      C3066   1.403       .  A
C1451      C1452   1.426       .  A
C1451      C1458   1.440       .  S
C1452      C1453   1.414       .  A
C1453      C3070   1.388       .  A
C1453      H1456   1.085       .  S
C1454      C3069   1.388   1_455  A
C1454      C1457   1.447       .  S
C1457      N1459   1.157       .  T
C1458      N1460   1.158       .  T
C1461      C1462   1.393       .  A
C1461      C1466   1.400       .  A
C1462      H1467   1.083       .  S
C1463      C1464   1.422       .  A
C1463      C1470   1.441       .  S
C1464      C1465   1.416       .  A
C1465      H1468   1.073       .  S
C1466      C1469   1.441       .  S
C1469      N1471   1.156       .  T
C1470      N1472   1.156       .  T
C1473      C1474   1.398       .  A
C1473      C1478   1.409       .  A
C1474      H1479   1.083       .  S
C1475      C1476   1.416       .  A
C1475      C1482   1.446       .  S
C1476      C1477   1.404       .  A
C1477      H1480   1.084       .  S
C1478      C1481   1.442       .  S
C1481      N1483   1.157       .  T
C1482      N1484   1.157       .  T
C1485      C1486   1.403       .  A
C1485      C1490   1.424       .  A
C1486      C1487   1.394       .  A
C1486      H1491   1.080       .  S
C1487      C1488   1.427       .  A
C1487      C1494   1.447       .  S
C1488      C1489   1.404       .  A
C1489      C1490   1.405       .  A
C1489      H1492   1.082       .  S
C1490      C1493   1.444       .  S
C1493      N1495   1.157       .  T
C1494      N1496   1.157       .  T
C1497      C1498   1.407       .  A
C1497      C1502   1.413       .  A
C1498      C3115   1.403   1_455  A
C1498      H1503   1.085       .  S
C1499      C3114   1.403       .  A
C1499      C1500   1.413       .  A
C1499      C1506   1.445       .  S
C1500      C1501   1.409       .  A
C1501      C3118   1.414       .  A
C1501      H1504   1.085       .  S
C1502      C3117   1.414   1_455  A
C1502      C1505   1.442       .  S
C1505      N1507   1.157       .  T
C1506      N1508   1.157       .  T
C1509      C1510   1.401       .  A
C1509      C1514   1.421       .  A
C1510      H1515   1.080       .  S
C1511      C1512   1.417       .  A
C1511      C1518   1.445       .  S
C1512      C1513   1.399       .  A
C1513      H1516   1.083       .  S
C1514      C1517   1.445       .  S
C1517      N1519   1.157       .  T
C1518      N1520   1.157       .  T
C1521      C1522   1.403       .  A
C1521      C1526   1.425       .  A
C1522      C1523   1.407       .  A
C1522      H1527   1.082       .  S
C1523      C1524   1.427       .  A
C1523      C1530   1.441       .  S
C1524      C1525   1.402       .  A
C1525      C1526   1.395       .  A
C1525      H1528   1.085       .  S
C1526      C1529   1.447       .  S
C1529      N1531   1.158       .  T
C1530      N1532   1.157       .  T
C1533      C1534   1.408       .  A
C1533      C1538   1.410       .  A
C1534      H1539   1.083       .  S
C1535      C1536   1.413       .  A
C1535      C1542   1.439       .  S
C1536      C1537   1.413       .  A
C1537      H1540   1.085       .  S
C1538      C1541   1.440       .  S
C1541      N1543   1.156       .  T
C1542      N1544   1.156       .  T
C1545      C1546   1.403       .  A
C1545      C1550   1.414       .  A
C1546      H1551   1.085       .  S
C1547      C1548   1.412       .  A
C1547      C1554   1.444       .  S
C1548      C1549   1.402       .  A
C1549      H1552   1.085       .  S
C1550      C1553   1.441       .  S
C1553      N1555   1.157       .  T
C1554      N1556   1.157       .  T
C1557      C1558   1.398       .  A
C1557      C1562   1.415       .  A
C1558      C3175   1.397       .  A
C1558      H1563   1.085       .  S
C1559      C3174   1.397   1_455  A
C1559      C1560   1.425       .  A
C1559      C1566   1.444       .  S
C1560      C1561   1.408       .  A
C1561      C3178   1.394   1_455  A
C1561      H1564   1.083       .  S
C1562      C3177   1.394       .  A
C1562      C1565   1.446       .  S
C1565      N1567   1.158       .  T
C1566      N1568   1.158       .  T
C1569      C1570   1.404       .  A
C1569      C1574   1.423       .  A
C1570      C1571   1.395       .  A
C1570      H1575   1.085       .  S
C1571      C1572   1.424       .  A
C1571      C1578   1.447       .  S
C1572      C1573   1.405       .  A
C1573      C1574   1.405       .  A
C1573      H1576   1.081       .  S
C1574      C1577   1.443       .  S
C1577      N1579   1.158       .  T
C1578      N1580   1.157       .  T
C1581      C1582   1.398       .  A
C1581      C1586   1.414       .  A
C1582      H1587   1.085       .  S
C1583      C1584   1.427       .  A
C1583      C1590   1.443       .  S
C1584      C1585   1.408       .  A
C1585      H1588   1.082       .  S
C1586      C1589   1.447       .  S
C1589      N1591   1.158       .  T
C1590      N1592   1.158       .  T
C1593      C1594   1.404       .  A
C1593      C1598   1.418       .  A
C1594      H1599   1.084       .  S
C1595      C1596   1.409       .  A
C1595      C1602   1.443       .  S
C1596      C1597   1.397       .  A
C1597      H1600   1.085       .  S
C1598      C1601   1.446       .  S
C1601      N1603   1.158       .  T
C1602      N1604   1.157       .  T
C1605      C1606   1.416       .  A
C1605      C1610   1.413       .  A
C1606      C1607   1.406       .  A
C1606      H1611   1.076       .  S
C1607      C1608   1.418       .  A
C1607      C1614   1.440       .  S
C1608      C1609   1.414       .  A
C1609      C1610   1.397       .  A
C1609      H1612   1.086       .  S
C1610      C1613   1.443       .  S
C1613      N1615   1.156       .  T
C1614      N1616   1.158       .  T
O1617      C1632   1.262       .  A
O1617     Al1625   1.926       .  S
C1618      O1628   1.260       .  A
C1618      O1619   1.261       .  A
C1618      C1749   1.482       .  S
O1619     Al1621   1.884       .  S
O1620      C1622   1.256       .  A
O1620     Al1621   1.871       .  S
Al1621     O1629   1.876       .  S
Al1621     O1631   1.878       .  S
Al1621     O1630   1.771       .  S
C1622      O1635   1.267       .  A
C1622      C1730   1.469       .  S
O1623      C1633   1.263       .  A
O1623     Al1625   1.891       .  S
O1624      C1637   1.263       .  A
O1624     Al1634   1.885       .  S
Al1625     O1638   1.926       .  S
Al1625     O1635   1.943       .  S
Al1625     O1630   1.791       .  S
O1626      C1633   1.258       .  A
O1626     Al1634   1.906       .  S
O1627      C1636   1.264       .  A
O1627     Al1634   1.937       .  S
O1628     Al1634   1.927       .  S
O1629      C1636   1.256       .  A
O1630     Al1634   1.794       .  S
O1631      C1632   1.258       .  A
C1632      C1773   1.478       .  S
C1633      C1682   1.461       .  S
C1636      C1718   1.470       .  S
C1637      O1638   1.263       .  A
C1637      C1694   1.467       .  S
C1639      C1640   1.537       .  S
C1639      C1645   1.537       .  S
C1639      C1643   1.541       .  S
C1639      C2009   1.546       .  S
C1640      H1647   1.087       .  S
C1640      C1641   1.364       .  D
C1641      C2000   1.477       .  S
C1641      C1642   1.529       .  S
C1642      C1646   1.542       .  S
C1642      C1644   1.536       .  S
C1642      H1648   1.111       .  S
C1643      H1649   1.079       .  S
C1643      C1644   1.363       .  D
C1644      C1985   1.485       .  S
C1645      H1650   1.086       .  S
C1645      C1646   1.372       .  D
C1646      C1802   1.473       .  S
C1651      C1652   1.545       .  S
C1651      C1657   1.528       .  S
C1651      C1655   1.534       .  S
C1651      C1973   1.539       .  S
C1652      H1659   1.086       .  S
C1652      C1653   1.367       .  D
C1653      C1949   1.485       .  S
C1653      C1654   1.534       .  S
C1654      C1658   1.537       .  S
C1654      C1656   1.544       .  S
C1654      H1660   1.110       .  S
C1655      H1661   1.077       .  S
C1655      C1656   1.364       .  D
C1656      C1961   1.483       .  S
C1657      H1662   1.087       .  S
C1657      C1658   1.368       .  D
C1658      C1788   1.470       .  S
C1663      C1664   1.506       .  S
C1663      C1669   1.521       .  S
C1663      C1667   1.558       .  S
C1663      C1925   1.534       .  S
C1664      H1671   1.088       .  S
C1664      C1665   1.358       .  D
C1665      C1784   1.483       .  S
C1665      C1666   1.557       .  S
C1666      C1670   1.549       .  S
C1666      C1668   1.547       .  S
C1666      H1672   1.110       .  S
C1667      H1673   1.083       .  S
C1667      C1668   1.386       .  D
C1668      C1937   1.508       .  S
C1669      H1674   1.088       .  S
C1669      C1670   1.358       .  D
C1670      C1997   1.482       .  S
C1675      C1676   1.521       .  S
C1675      C1681   1.527       .  S
C1675      C1679   1.532       .  S
C1675      C1964   1.529       .  S
C1676      H1683   1.084       .  S
C1676      C1677   1.368       .  D
C1677      C1913   1.504       .  S
C1677      C1678   1.559       .  S
C1678      C1682   1.542       .  S
C1678      C1680   1.566       .  S
C1678      H1684   1.109       .  S
C1679      H1685   1.086       .  S
C1679      C1680   1.367       .  D
C1680      C1940   1.508       .  S
C1681      H1686   1.085       .  S
C1681      C1682   1.357       .  D
C1687      C1688   1.528       .  S
C1687      C1693   1.527       .  S
C1687      C1691   1.541       .  S
C1687      C1988   1.535       .  S
C1688      H1695   1.086       .  S
C1688      C1689   1.367       .  D
C1689      C1916   1.491       .  S
C1689      C1690   1.548       .  S
C1690      C1694   1.546       .  S
C1690      C1692   1.554       .  S
C1690      H1696   1.110       .  S
C1691      H1697   1.085       .  S
C1691      C1692   1.366       .  D
C1692      C1901   1.502       .  S
C1693      H1698   1.084       .  S
C1693      C1694   1.363       .  D
C1699      C1700   1.516       .  S
C1699      C1705   1.524       .  S
C1699      C1703   1.546       .  S
C1699      C1892   1.535       .  S
C1700      H1707   1.087       .  S
C1700      C1701   1.359       .  D
C1701      C1798   1.480       .  S
C1701      C1702   1.550       .  S
C1702      C1706   1.543       .  S
C1702      C1704   1.556       .  S
C1702      H1708   1.110       .  S
C1703      H1709   1.084       .  S
C1703      C1704   1.381       .  D
C1704      C1904   1.502       .  S
C1705      H1710   1.088       .  S
C1705      C1706   1.361       .  D
C1706      C1952   1.483       .  S
C1711      C1712   1.533       .  S
C1711      C1717   1.544       .  S
C1711      C1715   1.536       .  S
C1711      C1889   1.538       .  S
C1712      H1719   1.087       .  S
C1712      C1713   1.364       .  D
C1713      C1877   1.479       .  S
C1713      C1714   1.537       .  S
C1714      C1718   1.533       .  S
C1714      C1716   1.536       .  S
C1714      H1720   1.111       .  S
C1715      H1721   1.086       .  S
C1715      C1716   1.365       .  D
C1716      C1865   1.469       .  S
C1717      H1722   1.084       .  S
C1717      C1718   1.368       .  D
C1723      C1724   1.543       .  S
C1723      C1729   1.534       .  S
C1723      C1727   1.536       .  S
C1723      C1928   1.542       .  S
C1724      H1731   1.087       .  S
C1724      C1725   1.368       .  D
C1725      C1841   1.477       .  S
C1725      C1726   1.536       .  S
C1726      C1730   1.532       .  S
C1726      C1728   1.532       .  S
C1726      H1732   1.111       .  S
C1727      H1733   1.078       .  S
C1727      C1728   1.361       .  D
C1728      C1853   1.473       .  S
C1729      H1734   1.087       .  S
C1729      C1730   1.370       .  D
C1735      C1736   1.522       .  S
C1735      C1741   1.524       .  S
C1735      C1739   1.545       .  S
C1735      C1856   1.534       .  S
C1736      H1743   1.088       .  S
C1736      C1737   1.359       .  D
C1737      C1817   1.492       .  S
C1737      C1738   1.547       .  S
C1738      C1742   1.550       .  S
C1738      C1740   1.550       .  S
C1738      H1744   1.109       .  S
C1739      H1745   1.085       .  S
C1739      C1740   1.370       .  D
C1740      C1832   1.506       .  S
C1741      H1746   1.076       .  S
C1741      C1742   1.365       .  D
C1742      C1799   1.466       .  S
C1747      C1748   1.509       .  S
C1747      C1753   1.522       .  S
C1747      C1751   1.551       .  S
C1747      C1976   1.533       .  S
C1748      H1755   1.088       .  S
C1748      C1749   1.360       .  D
C1749      C1750   1.554       .  S
C1750      C1754   1.552       .  S
C1750      C1752   1.552       .  S
C1750      H1756   1.108       .  S
C1751      H1757   1.083       .  S
C1751      C1752   1.383       .  D
C1752      C1829   1.509       .  S
C1753      H1758   1.088       .  S
C1753      C1754   1.359       .  D
C1754      C1880   1.482       .  S
C1759      C1760   1.526       .  S
C1759      C1765   1.534       .  S
C1759      C1763   1.536       .  S
C1759      C1868   1.534       .  S
C1760      H1767   1.087       .  S
C1760      C1761   1.362       .  D
C1761      C1820   1.477       .  S
C1761      C1762   1.552       .  S
C1762      C1766   1.536       .  S
C1762      C1764   1.548       .  S
C1762      H1768   1.107       .  S
C1763      H1769   1.084       .  S
C1763      C1764   1.371       .  D
C1764      C1805   1.506       .  S
C1765      H1770   1.079       .  S
C1765      C1766   1.360       .  D
C1766      C1803   1.462       .  S
C1771      C1772   1.525       .  S
C1771      C1777   1.528       .  S
C1771      C1775   1.549       .  S
C1771      C2012   1.547       .  S
C1772      H1779   1.087       .  S
C1772      C1773   1.364       .  D
C1773      C1774   1.540       .  S
C1774      C1778   1.543       .  S
C1774      C1776   1.548       .  S
C1774      H1780   1.110       .  S
C1775      H1781   1.071       .  S
C1775      C1776   1.379       .  D
C1776      C1808   1.502       .  S
C1777      H1782   1.087       .  S
C1777      C1778   1.359       .  D
C1778      C1844   1.477       .  S
O1783      C1798   1.259       .  A
O1783     Al1791   1.920       .  S
C1784      O1794   1.260       .  A
C1784      O1785   1.264       .  A
O1785     Al1787   1.889       .  S
O1786      C1788   1.256       .  A
O1786     Al1787   1.869       .  S
Al1787     O1795   1.887       .  S
Al1787     O1797   1.891       .  S
Al1787     O1796   1.764       .  S
C1788      O1801   1.267       .  A
O1789      C1799   1.261       .  A
O1789     Al1791   1.881       .  S
O1790      C1803   1.259       .  A
O1790     Al1800   1.875       .  S
Al1791     O1804   1.926       .  S
Al1791     O1801   1.952       .  S
Al1791     O1796   1.795       .  S
O1792      C1799   1.261       .  A
O1792     Al1800   1.924       .  S
O1793      C1802   1.266       .  A
O1793     Al1800   1.938       .  S
O1794     Al1800   1.924       .  S
O1795      C1802   1.259       .  A
O1796     Al1800   1.793       .  S
O1797      C1798   1.263       .  A
C1803      O1804   1.264       .  A
C1805      C1806   1.410       .  A
C1805      C1810   1.417       .  A
C1806      H1811   1.085       .  S
C1807      C1808   1.414       .  A
C1807      C1814   1.444       .  S
C1808      C1809   1.406       .  A
C1809      H1812   1.083       .  S
C1810      C1813   1.442       .  S
C1813      N1815   1.158       .  T
C1814      N1816   1.157       .  T
C1817      C1818   1.407       .  A
C1817      C1822   1.411       .  A
C1818      C2223   1.384       .  A
C1818      H1823   1.085       .  S
C1819      C2222   1.384   1_554  A
C1819      C1820   1.405       .  A
C1819      C1826   1.443       .  S
C1820      C1821   1.409       .  A
C1821      C2226   1.413   1_554  A
C1821      H1824   1.084       .  S
C1822      C2225   1.413       .  A
C1822      C1825   1.442       .  S
C1825      N1827   1.157       .  T
C1826      N1828   1.156       .  T
C1829      C1830   1.406       .  A
C1829      C1834   1.421       .  A
C1830      C2639   1.404       .  A
C1830      H1835   1.085       .  S
C1831      C2638   1.404   1_545  A
C1831      C1832   1.418       .  A
C1831      C1838   1.441       .  S
C1832      C1833   1.404       .  A
C1833      C2642   1.407   1_545  A
C1833      H1836   1.084       .  S
C1834      C2641   1.407       .  A
C1834      C1837   1.441       .  S
C1837      N1839   1.157       .  T
C1838      N1840   1.156       .  T
C1841      C1842   1.398       .  A
C1841      C1846   1.408       .  A
C1842      C2247   1.397       .  A
C1842      H1847   1.084       .  S
C1843      C2246   1.397   1_554  A
C1843      C1844   1.411       .  A
C1843      C1850   1.440       .  S
C1844      C1845   1.404       .  A
C1845      C2250   1.403   1_554  A
C1845      H1848   1.084       .  S
C1846      C2249   1.403       .  A
C1846      C1849   1.442       .  S
C1849      N1851   1.157       .  T
C1850      N1852   1.156       .  T
C1853      C1854   1.398       .  A
C1853      C1858   1.405       .  A
C1854      H1859   1.086       .  S
C1855      C1856   1.426       .  A
C1855      C1862   1.440       .  S
C1856      C1857   1.414       .  A
C1857      H1860   1.085       .  S
C1858      C1861   1.447       .  S
C1861      N1863   1.157       .  T
C1862      N1864   1.158       .  T
C1865      C1866   1.393       .  A
C1865      C1870   1.400       .  A
C1866      C2675   1.390       .  A
C1866      H1871   1.083       .  S
C1867      C2674   1.390   1_545  A
C1867      C1868   1.422       .  A
C1867      C1874   1.441       .  S
C1868      C1869   1.416       .  A
C1869      C2678   1.398   1_545  A
C1869      H1872   1.073       .  S
C1870      C2677   1.398       .  A
C1870      C1873   1.441       .  S
C1873      N1875   1.156       .  T
C1874      N1876   1.156       .  T
C1877      C1878   1.398       .  A
C1877      C1882   1.409       .  A
C1878      C2283   1.395   1_554  A
C1878      H1883   1.083       .  S
C1879      C2282   1.395       .  A
C1879      C1880   1.416       .  A
C1879      C1886   1.446       .  S
C1880      C1881   1.404       .  A
C1881      C2286   1.407       .  A
C1881      H1884   1.084       .  S
C1882      C2285   1.407   1_554  A
C1882      C1885   1.442       .  S
C1885      N1887   1.157       .  T
C1886      N1888   1.157       .  T
C1889      C1890   1.403       .  A
C1889      C1894   1.424       .  A
C1890      C1891   1.394       .  A
C1890      H1895   1.080       .  S
C1891      C1892   1.427       .  A
C1891      C1898   1.447       .  S
C1892      C1893   1.404       .  A
C1893      C1894   1.405       .  A
C1893      H1896   1.082       .  S
C1894      C1897   1.444       .  S
C1897      N1899   1.157       .  T
C1898      N1900   1.157       .  T
C1901      C1902   1.407       .  A
C1901      C1906   1.413       .  A
C1902      H1907   1.085       .  S
C1903      C1904   1.413       .  A
C1903      C1910   1.445       .  S
C1904      C1905   1.409       .  A
C1905      H1908   1.085       .  S
C1906      C1909   1.442       .  S
C1909      N1911   1.157       .  T
C1910      N1912   1.157       .  T
C1913      C1914   1.401       .  A
C1913      C1918   1.421       .  A
C1914      C2319   1.404       .  A
C1914      H1919   1.080       .  S
C1915      C2318   1.404   1_554  A
C1915      C1916   1.417       .  A
C1915      C1922   1.445       .  S
C1916      C1917   1.399       .  A
C1917      C2322   1.399   1_554  A
C1917      H1920   1.083       .  S
C1918      C2321   1.399       .  A
C1918      C1921   1.445       .  S
C1921      N1923   1.157       .  T
C1922      N1924   1.157       .  T
C1925      C1926   1.403       .  A
C1925      C1930   1.425       .  A
C1926      C1927   1.407       .  A
C1926      H1931   1.082       .  S
C1927      C1928   1.427       .  A
C1927      C1934   1.441       .  S
C1928      C1929   1.402       .  A
C1929      C1930   1.395       .  A
C1929      H1932   1.085       .  S
C1930      C1933   1.447       .  S
C1933      N1935   1.158       .  T
C1934      N1936   1.157       .  T
C1937      C1938   1.408       .  A
C1937      C1942   1.410       .  A
C1938      C2747   1.408   1_545  A
C1938      H1943   1.083       .  S
C1939      C2746   1.408       .  A
C1939      C1940   1.413       .  A
C1939      C1946   1.439       .  S
C1940      C1941   1.413       .  A
C1941      C2750   1.406       .  A
C1941      H1944   1.085       .  S
C1942      C2749   1.406   1_545  A
C1942      C1945   1.440       .  S
C1945      N1947   1.156       .  T
C1946      N1948   1.156       .  T
C1949      C1950   1.403       .  A
C1949      C1954   1.414       .  A
C1950      C2355   1.398       .  A
C1950      H1955   1.085       .  S
C1951      C2354   1.398   1_554  A
C1951      C1952   1.412       .  A
C1951      C1958   1.444       .  S
C1952      C1953   1.402       .  A
C1953      C2358   1.403   1_554  A
C1953      H1956   1.085       .  S
C1954      C2357   1.403       .  A
C1954      C1957   1.441       .  S
C1957      N1959   1.157       .  T
C1958      N1960   1.157       .  T
C1961      C1962   1.398       .  A
C1961      C1966   1.415       .  A
C1962      H1967   1.085       .  S
C1963      C1964   1.425       .  A
C1963      C1970   1.444       .  S
C1964      C1965   1.408       .  A
C1965      H1968   1.083       .  S
C1966      C1969   1.446       .  S
C1969      N1971   1.158       .  T
C1970      N1972   1.158       .  T
C1973      C1974   1.404       .  A
C1973      C1978   1.423       .  A
C1974      C1975   1.395       .  A
C1974      H1979   1.085       .  S
C1975      C1976   1.424       .  A
C1975      C1982   1.447       .  S
C1976      C1977   1.405       .  A
C1977      C1978   1.405       .  A
C1977      H1980   1.081       .  S
C1978      C1981   1.443       .  S
C1981      N1983   1.158       .  T
C1982      N1984   1.157       .  T
C1985      C1986   1.398       .  A
C1985      C1990   1.414       .  A
C1986      C2795   1.404   1_545  A
C1986      H1991   1.085       .  S
C1987      C2794   1.404       .  A
C1987      C1988   1.427       .  A
C1987      C1994   1.443       .  S
C1988      C1989   1.408       .  A
C1989      C2798   1.391       .  A
C1989      H1992   1.082       .  S
C1990      C2797   1.391   1_545  A
C1990      C1993   1.447       .  S
C1993      N1995   1.158       .  T
C1994      N1996   1.158       .  T
C1997      C1998   1.404       .  A
C1997      C2002   1.418       .  A
C1998      C2403   1.407       .  A
C1998      H2003   1.084       .  S
C1999      C2402   1.407   1_554  A
C1999      C2000   1.409       .  A
C1999      C2006   1.443       .  S
C2000      C2001   1.397       .  A
C2001      C2406   1.393   1_554  A
C2001      H2004   1.085       .  S
C2002      C2405   1.393       .  A
C2002      C2005   1.446       .  S
C2005      N2007   1.158       .  T
C2006      N2008   1.157       .  T
C2009      C2010   1.416       .  A
C2009      C2014   1.413       .  A
C2010      C2011   1.406       .  A
C2010      H2015   1.076       .  S
C2011      C2012   1.418       .  A
C2011      C2018   1.440       .  S
C2012      C2013   1.414       .  A
C2013      C2014   1.397       .  A
C2013      H2016   1.086       .  S
C2014      C2017   1.443       .  S
C2017      N2019   1.156       .  T
C2018      N2020   1.158       .  T
O2021      C2036   1.262       .  A
O2021     Al2029   1.926       .  S
C2022      O2032   1.260       .  A
C2022      O2023   1.261       .  A
C2022      C2153   1.482       .  S
O2023     Al2025   1.884       .  S
O2024      C2026   1.256       .  A
O2024     Al2025   1.871       .  S
Al2025     O2033   1.876       .  S
Al2025     O2035   1.878       .  S
Al2025     O2034   1.771       .  S
C2026      O2039   1.267       .  A
C2026      C2134   1.469       .  S
O2027      C2037   1.263       .  A
O2027     Al2029   1.891       .  S
O2028      C2041   1.263       .  A
O2028     Al2038   1.885       .  S
Al2029     O2042   1.926       .  S
Al2029     O2039   1.943       .  S
Al2029     O2034   1.791       .  S
O2030      C2037   1.258       .  A
O2030     Al2038   1.906       .  S
O2031      C2040   1.264       .  A
O2031     Al2038   1.937       .  S
O2032     Al2038   1.927       .  S
O2033      C2040   1.256       .  A
O2034     Al2038   1.794       .  S
O2035      C2036   1.258       .  A
C2036      C2177   1.478       .  S
C2037      C2086   1.461       .  S
C2040      C2122   1.470       .  S
C2041      O2042   1.263       .  A
C2041      C2098   1.467       .  S
C2043      C2044   1.537       .  S
C2043      C2049   1.537       .  S
C2043      C2047   1.541       .  S
C2043      C2413   1.546       .  S
C2044      H2051   1.087       .  S
C2044      C2045   1.364       .  D
C2045      C2404   1.477       .  S
C2045      C2046   1.529       .  S
C2046      C2050   1.542       .  S
C2046      C2048   1.536       .  S
C2046      H2052   1.111       .  S
C2047      H2053   1.079       .  S
C2047      C2048   1.363       .  D
C2048      C2389   1.485       .  S
C2049      H2054   1.086       .  S
C2049      C2050   1.372       .  D
C2050      C2206   1.473       .  S
C2055      C2056   1.545       .  S
C2055      C2061   1.528       .  S
C2055      C2059   1.534       .  S
C2055      C2377   1.539       .  S
C2056      H2063   1.086       .  S
C2056      C2057   1.367       .  D
C2057      C2353   1.485       .  S
C2057      C2058   1.534       .  S
C2058      C2062   1.537       .  S
C2058      C2060   1.544       .  S
C2058      H2064   1.110       .  S
C2059      H2065   1.077       .  S
C2059      C2060   1.364       .  D
C2060      C2365   1.483       .  S
C2061      H2066   1.087       .  S
C2061      C2062   1.368       .  D
C2062      C2192   1.470       .  S
C2067      C2068   1.506       .  S
C2067      C2073   1.521       .  S
C2067      C2071   1.558       .  S
C2067      C2329   1.534       .  S
C2068      H2075   1.088       .  S
C2068      C2069   1.358       .  D
C2069      C2188   1.483       .  S
C2069      C2070   1.557       .  S
C2070      C2074   1.549       .  S
C2070      C2072   1.547       .  S
C2070      H2076   1.110       .  S
C2071      H2077   1.083       .  S
C2071      C2072   1.386       .  D
C2072      C2341   1.508       .  S
C2073      H2078   1.088       .  S
C2073      C2074   1.358       .  D
C2074      C2401   1.482       .  S
C2079      C2080   1.521       .  S
C2079      C2085   1.527       .  S
C2079      C2083   1.532       .  S
C2079      C2368   1.529       .  S
C2080      H2087   1.084       .  S
C2080      C2081   1.368       .  D
C2081      C2317   1.504       .  S
C2081      C2082   1.559       .  S
C2082      C2086   1.542       .  S
C2082      C2084   1.566       .  S
C2082      H2088   1.109       .  S
C2083      H2089   1.086       .  S
C2083      C2084   1.367       .  D
C2084      C2344   1.508       .  S
C2085      H2090   1.085       .  S
C2085      C2086   1.357       .  D
C2091      C2092   1.528       .  S
C2091      C2097   1.527       .  S
C2091      C2095   1.541       .  S
C2091      C2392   1.535       .  S
C2092      H2099   1.086       .  S
C2092      C2093   1.367       .  D
C2093      C2320   1.491       .  S
C2093      C2094   1.548       .  S
C2094      C2098   1.546       .  S
C2094      C2096   1.554       .  S
C2094      H2100   1.110       .  S
C2095      H2101   1.085       .  S
C2095      C2096   1.366       .  D
C2096      C2305   1.502       .  S
C2097      H2102   1.084       .  S
C2097      C2098   1.363       .  D
C2103      C2104   1.516       .  S
C2103      C2109   1.524       .  S
C2103      C2107   1.546       .  S
C2103      C2296   1.535       .  S
C2104      H2111   1.087       .  S
C2104      C2105   1.359       .  D
C2105      C2202   1.480       .  S
C2105      C2106   1.550       .  S
C2106      C2110   1.543       .  S
C2106      C2108   1.556       .  S
C2106      H2112   1.110       .  S
C2107      H2113   1.084       .  S
C2107      C2108   1.381       .  D
C2108      C2308   1.502       .  S
C2109      H2114   1.088       .  S
C2109      C2110   1.361       .  D
C2110      C2356   1.483       .  S
C2115      C2116   1.533       .  S
C2115      C2121   1.544       .  S
C2115      C2119   1.536       .  S
C2115      C2293   1.538       .  S
C2116      H2123   1.087       .  S
C2116      C2117   1.364       .  D
C2117      C2281   1.479       .  S
C2117      C2118   1.537       .  S
C2118      C2122   1.533       .  S
C2118      C2120   1.536       .  S
C2118      H2124   1.111       .  S
C2119      H2125   1.086       .  S
C2119      C2120   1.365       .  D
C2120      C2269   1.469       .  S
C2121      H2126   1.084       .  S
C2121      C2122   1.368       .  D
C2127      C2128   1.543       .  S
C2127      C2133   1.534       .  S
C2127      C2131   1.536       .  S
C2127      C2332   1.542       .  S
C2128      H2135   1.087       .  S
C2128      C2129   1.368       .  D
C2129      C2245   1.477       .  S
C2129      C2130   1.536       .  S
C2130      C2134   1.532       .  S
C2130      C2132   1.532       .  S
C2130      H2136   1.111       .  S
C2131      H2137   1.078       .  S
C2131      C2132   1.361       .  D
C2132      C2257   1.473       .  S
C2133      H2138   1.087       .  S
C2133      C2134   1.370       .  D
C2139      C2140   1.522       .  S
C2139      C2145   1.524       .  S
C2139      C2143   1.545       .  S
C2139      C2260   1.534       .  S
C2140      H2147   1.088       .  S
C2140      C2141   1.359       .  D
C2141      C2221   1.492       .  S
C2141      C2142   1.547       .  S
C2142      C2146   1.550       .  S
C2142      C2144   1.550       .  S
C2142      H2148   1.109       .  S
C2143      H2149   1.085       .  S
C2143      C2144   1.370       .  D
C2144      C2236   1.506       .  S
C2145      H2150   1.076       .  S
C2145      C2146   1.365       .  D
C2146      C2203   1.466       .  S
C2151      C2152   1.509       .  S
C2151      C2157   1.522       .  S
C2151      C2155   1.551       .  S
C2151      C2380   1.533       .  S
C2152      H2159   1.088       .  S
C2152      C2153   1.360       .  D
C2153      C2154   1.554       .  S
C2154      C2158   1.552       .  S
C2154      C2156   1.552       .  S
C2154      H2160   1.108       .  S
C2155      H2161   1.083       .  S
C2155      C2156   1.383       .  D
C2156      C2233   1.509       .  S
C2157      H2162   1.088       .  S
C2157      C2158   1.359       .  D
C2158      C2284   1.482       .  S
C2163      C2164   1.526       .  S
C2163      C2169   1.534       .  S
C2163      C2167   1.536       .  S
C2163      C2272   1.534       .  S
C2164      H2171   1.087       .  S
C2164      C2165   1.362       .  D
C2165      C2224   1.477       .  S
C2165      C2166   1.552       .  S
C2166      C2170   1.536       .  S
C2166      C2168   1.548       .  S
C2166      H2172   1.107       .  S
C2167      H2173   1.084       .  S
C2167      C2168   1.371       .  D
C2168      C2209   1.506       .  S
C2169      H2174   1.079       .  S
C2169      C2170   1.360       .  D
C2170      C2207   1.462       .  S
C2175      C2176   1.525       .  S
C2175      C2181   1.528       .  S
C2175      C2179   1.549       .  S
C2175      C2416   1.547       .  S
C2176      H2183   1.087       .  S
C2176      C2177   1.364       .  D
C2177      C2178   1.540       .  S
C2178      C2182   1.543       .  S
C2178      C2180   1.548       .  S
C2178      H2184   1.110       .  S
C2179      H2185   1.071       .  S
C2179      C2180   1.379       .  D
C2180      C2212   1.502       .  S
C2181      H2186   1.087       .  S
C2181      C2182   1.359       .  D
C2182      C2248   1.477       .  S
O2187      C2202   1.259       .  A
O2187     Al2195   1.920       .  S
C2188      O2198   1.260       .  A
C2188      O2189   1.264       .  A
O2189     Al2191   1.889       .  S
O2190      C2192   1.256       .  A
O2190     Al2191   1.869       .  S
Al2191     O2199   1.887       .  S
Al2191     O2201   1.891       .  S
Al2191     O2200   1.764       .  S
C2192      O2205   1.267       .  A
O2193      C2203   1.261       .  A
O2193     Al2195   1.881       .  S
O2194      C2207   1.259       .  A
O2194     Al2204   1.875       .  S
Al2195     O2208   1.926       .  S
Al2195     O2205   1.952       .  S
Al2195     O2200   1.795       .  S
O2196      C2203   1.261       .  A
O2196     Al2204   1.924       .  S
O2197      C2206   1.266       .  A
O2197     Al2204   1.938       .  S
O2198     Al2204   1.924       .  S
O2199      C2206   1.259       .  A
O2200     Al2204   1.793       .  S
O2201      C2202   1.263       .  A
C2207      O2208   1.264       .  A
C2209      C2210   1.410       .  A
C2209      C2214   1.417       .  A
C2210      H2215   1.085       .  S
C2211      C2212   1.414       .  A
C2211      C2218   1.444       .  S
C2212      C2213   1.406       .  A
C2213      H2216   1.083       .  S
C2214      C2217   1.442       .  S
C2217      N2219   1.158       .  T
C2218      N2220   1.157       .  T
C2221      C2222   1.407       .  A
C2221      C2226   1.411       .  A
C2222      H2227   1.085       .  S
C2223      C2224   1.405       .  A
C2223      C2230   1.443       .  S
C2224      C2225   1.409       .  A
C2225      H2228   1.084       .  S
C2226      C2229   1.442       .  S
C2229      N2231   1.157       .  T
C2230      N2232   1.156       .  T
C2233      C2234   1.406       .  A
C2233      C2238   1.421       .  A
C2234      C3043   1.404       .  A
C2234      H2239   1.085       .  S
C2235      C3042   1.404   1_545  A
C2235      C2236   1.418       .  A
C2235      C2242   1.441       .  S
C2236      C2237   1.404       .  A
C2237      C3046   1.407   1_545  A
C2237      H2240   1.084       .  S
C2238      C3045   1.407       .  A
C2238      C2241   1.441       .  S
C2241      N2243   1.157       .  T
C2242      N2244   1.156       .  T
C2245      C2246   1.398       .  A
C2245      C2250   1.408       .  A
C2246      H2251   1.084       .  S
C2247      C2248   1.411       .  A
C2247      C2254   1.440       .  S
C2248      C2249   1.404       .  A
C2249      H2252   1.084       .  S
C2250      C2253   1.442       .  S
C2253      N2255   1.157       .  T
C2254      N2256   1.156       .  T
C2257      C2258   1.398       .  A
C2257      C2262   1.405       .  A
C2258      H2263   1.086       .  S
C2259      C2260   1.426       .  A
C2259      C2266   1.440       .  S
C2260      C2261   1.414       .  A
C2261      H2264   1.085       .  S
C2262      C2265   1.447       .  S
C2265      N2267   1.157       .  T
C2266      N2268   1.158       .  T
C2269      C2270   1.393       .  A
C2269      C2274   1.400       .  A
C2270      C3079   1.390       .  A
C2270      H2275   1.083       .  S
C2271      C3078   1.390   1_545  A
C2271      C2272   1.422       .  A
C2271      C2278   1.441       .  S
C2272      C2273   1.416       .  A
C2273      C3082   1.398   1_545  A
C2273      H2276   1.073       .  S
C2274      C3081   1.398       .  A
C2274      C2277   1.441       .  S
C2277      N2279   1.156       .  T
C2278      N2280   1.156       .  T
C2281      C2282   1.398       .  A
C2281      C2286   1.409       .  A
C2282      H2287   1.083       .  S
C2283      C2284   1.416       .  A
C2283      C2290   1.446       .  S
C2284      C2285   1.404       .  A
C2285      H2288   1.084       .  S
C2286      C2289   1.442       .  S
C2289      N2291   1.157       .  T
C2290      N2292   1.157       .  T
C2293      C2294   1.403       .  A
C2293      C2298   1.424       .  A
C2294      C2295   1.394       .  A
C2294      H2299   1.080       .  S
C2295      C2296   1.427       .  A
C2295      C2302   1.447       .  S
C2296      C2297   1.404       .  A
C2297      C2298   1.405       .  A
C2297      H2300   1.082       .  S
C2298      C2301   1.444       .  S
C2301      N2303   1.157       .  T
C2302      N2304   1.157       .  T
C2305      C2306   1.407       .  A
C2305      C2310   1.413       .  A
C2306      H2311   1.085       .  S
C2307      C2308   1.413       .  A
C2307      C2314   1.445       .  S
C2308      C2309   1.409       .  A
C2309      H2312   1.085       .  S
C2310      C2313   1.442       .  S
C2313      N2315   1.157       .  T
C2314      N2316   1.157       .  T
C2317      C2318   1.401       .  A
C2317      C2322   1.421       .  A
C2318      H2323   1.080       .  S
C2319      C2320   1.417       .  A
C2319      C2326   1.445       .  S
C2320      C2321   1.399       .  A
C2321      H2324   1.083       .  S
C2322      C2325   1.445       .  S
C2325      N2327   1.157       .  T
C2326      N2328   1.157       .  T
C2329      C2330   1.403       .  A
C2329      C2334   1.425       .  A
C2330      C2331   1.407       .  A
C2330      H2335   1.082       .  S
C2331      C2332   1.427       .  A
C2331      C2338   1.441       .  S
C2332      C2333   1.402       .  A
C2333      C2334   1.395       .  A
C2333      H2336   1.085       .  S
C2334      C2337   1.447       .  S
C2337      N2339   1.158       .  T
C2338      N2340   1.157       .  T
C2341      C2342   1.408       .  A
C2341      C2346   1.410       .  A
C2342      C3151   1.408   1_545  A
C2342      H2347   1.083       .  S
C2343      C3150   1.408       .  A
C2343      C2344   1.413       .  A
C2343      C2350   1.439       .  S
C2344      C2345   1.413       .  A
C2345      C3154   1.406       .  A
C2345      H2348   1.085       .  S
C2346      C3153   1.406   1_545  A
C2346      C2349   1.440       .  S
C2349      N2351   1.156       .  T
C2350      N2352   1.156       .  T
C2353      C2354   1.403       .  A
C2353      C2358   1.414       .  A
C2354      H2359   1.085       .  S
C2355      C2356   1.412       .  A
C2355      C2362   1.444       .  S
C2356      C2357   1.402       .  A
C2357      H2360   1.085       .  S
C2358      C2361   1.441       .  S
C2361      N2363   1.157       .  T
C2362      N2364   1.157       .  T
C2365      C2366   1.398       .  A
C2365      C2370   1.415       .  A
C2366      H2371   1.085       .  S
C2367      C2368   1.425       .  A
C2367      C2374   1.444       .  S
C2368      C2369   1.408       .  A
C2369      H2372   1.083       .  S
C2370      C2373   1.446       .  S
C2373      N2375   1.158       .  T
C2374      N2376   1.158       .  T
C2377      C2378   1.404       .  A
C2377      C2382   1.423       .  A
C2378      C2379   1.395       .  A
C2378      H2383   1.085       .  S
C2379      C2380   1.424       .  A
C2379      C2386   1.447       .  S
C2380      C2381   1.405       .  A
C2381      C2382   1.405       .  A
C2381      H2384   1.081       .  S
C2382      C2385   1.443       .  S
C2385      N2387   1.158       .  T
C2386      N2388   1.157       .  T
C2389      C2390   1.398       .  A
C2389      C2394   1.414       .  A
C2390      C3199   1.404   1_545  A
C2390      H2395   1.085       .  S
C2391      C3198   1.404       .  A
C2391      C2392   1.427       .  A
C2391      C2398   1.443       .  S
C2392      C2393   1.408       .  A
C2393      C3202   1.391       .  A
C2393      H2396   1.082       .  S
C2394      C3201   1.391   1_545  A
C2394      C2397   1.447       .  S
C2397      N2399   1.158       .  T
C2398      N2400   1.158       .  T
C2401      C2402   1.404       .  A
C2401      C2406   1.418       .  A
C2402      H2407   1.084       .  S
C2403      C2404   1.409       .  A
C2403      C2410   1.443       .  S
C2404      C2405   1.397       .  A
C2405      H2408   1.085       .  S
C2406      C2409   1.446       .  S
C2409      N2411   1.158       .  T
C2410      N2412   1.157       .  T
C2413      C2414   1.416       .  A
C2413      C2418   1.413       .  A
C2414      C2415   1.406       .  A
C2414      H2419   1.076       .  S
C2415      C2416   1.418       .  A
C2415      C2422   1.440       .  S
C2416      C2417   1.414       .  A
C2417      C2418   1.397       .  A
C2417      H2420   1.086       .  S
C2418      C2421   1.443       .  S
C2421      N2423   1.156       .  T
C2422      N2424   1.158       .  T
O2425      C2440   1.262       .  A
O2425     Al2433   1.926       .  S
C2426      O2436   1.260       .  A
C2426      O2427   1.261       .  A
C2426      C2557   1.482       .  S
O2427     Al2429   1.884       .  S
O2428      C2430   1.256       .  A
O2428     Al2429   1.871       .  S
Al2429     O2437   1.876       .  S
Al2429     O2439   1.878       .  S
Al2429     O2438   1.771       .  S
C2430      O2443   1.267       .  A
C2430      C2538   1.469       .  S
O2431      C2441   1.263       .  A
O2431     Al2433   1.891       .  S
O2432      C2445   1.263       .  A
O2432     Al2442   1.885       .  S
Al2433     O2446   1.926       .  S
Al2433     O2443   1.943       .  S
Al2433     O2438   1.791       .  S
O2434      C2441   1.258       .  A
O2434     Al2442   1.906       .  S
O2435      C2444   1.264       .  A
O2435     Al2442   1.937       .  S
O2436     Al2442   1.927       .  S
O2437      C2444   1.256       .  A
O2438     Al2442   1.794       .  S
O2439      C2440   1.258       .  A
C2440      C2581   1.478       .  S
C2441      C2490   1.461       .  S
C2444      C2526   1.470       .  S
C2445      O2446   1.263       .  A
C2445      C2502   1.467       .  S
C2447      C2448   1.537       .  S
C2447      C2453   1.537       .  S
C2447      C2451   1.541       .  S
C2447      C2817   1.546       .  S
C2448      H2455   1.087       .  S
C2448      C2449   1.364       .  D
C2449      C2808   1.477       .  S
C2449      C2450   1.529       .  S
C2450      C2454   1.542       .  S
C2450      C2452   1.536       .  S
C2450      H2456   1.111       .  S
C2451      H2457   1.079       .  S
C2451      C2452   1.363       .  D
C2452      C2793   1.485       .  S
C2453      H2458   1.086       .  S
C2453      C2454   1.372       .  D
C2454      C2610   1.473       .  S
C2459      C2460   1.545       .  S
C2459      C2465   1.528       .  S
C2459      C2463   1.534       .  S
C2459      C2781   1.539       .  S
C2460      H2467   1.086       .  S
C2460      C2461   1.367       .  D
C2461      C2757   1.485       .  S
C2461      C2462   1.534       .  S
C2462      C2466   1.537       .  S
C2462      C2464   1.544       .  S
C2462      H2468   1.110       .  S
C2463      H2469   1.077       .  S
C2463      C2464   1.364       .  D
C2464      C2769   1.483       .  S
C2465      H2470   1.087       .  S
C2465      C2466   1.368       .  D
C2466      C2596   1.470       .  S
C2471      C2472   1.506       .  S
C2471      C2477   1.521       .  S
C2471      C2475   1.558       .  S
C2471      C2733   1.534       .  S
C2472      H2479   1.088       .  S
C2472      C2473   1.358       .  D
C2473      C2592   1.483       .  S
C2473      C2474   1.557       .  S
C2474      C2478   1.549       .  S
C2474      C2476   1.547       .  S
C2474      H2480   1.110       .  S
C2475      H2481   1.083       .  S
C2475      C2476   1.386       .  D
C2476      C2745   1.508       .  S
C2477      H2482   1.088       .  S
C2477      C2478   1.358       .  D
C2478      C2805   1.482       .  S
C2483      C2484   1.521       .  S
C2483      C2489   1.527       .  S
C2483      C2487   1.532       .  S
C2483      C2772   1.529       .  S
C2484      H2491   1.084       .  S
C2484      C2485   1.368       .  D
C2485      C2721   1.504       .  S
C2485      C2486   1.559       .  S
C2486      C2490   1.542       .  S
C2486      C2488   1.566       .  S
C2486      H2492   1.109       .  S
C2487      H2493   1.086       .  S
C2487      C2488   1.367       .  D
C2488      C2748   1.508       .  S
C2489      H2494   1.085       .  S
C2489      C2490   1.357       .  D
C2495      C2496   1.528       .  S
C2495      C2501   1.527       .  S
C2495      C2499   1.541       .  S
C2495      C2796   1.535       .  S
C2496      H2503   1.086       .  S
C2496      C2497   1.367       .  D
C2497      C2724   1.491       .  S
C2497      C2498   1.548       .  S
C2498      C2502   1.546       .  S
C2498      C2500   1.554       .  S
C2498      H2504   1.110       .  S
C2499      H2505   1.085       .  S
C2499      C2500   1.366       .  D
C2500      C2709   1.502       .  S
C2501      H2506   1.084       .  S
C2501      C2502   1.363       .  D
C2507      C2508   1.516       .  S
C2507      C2513   1.524       .  S
C2507      C2511   1.546       .  S
C2507      C2700   1.535       .  S
C2508      H2515   1.087       .  S
C2508      C2509   1.359       .  D
C2509      C2606   1.480       .  S
C2509      C2510   1.550       .  S
C2510      C2514   1.543       .  S
C2510      C2512   1.556       .  S
C2510      H2516   1.110       .  S
C2511      H2517   1.084       .  S
C2511      C2512   1.381       .  D
C2512      C2712   1.502       .  S
C2513      H2518   1.088       .  S
C2513      C2514   1.361       .  D
C2514      C2760   1.483       .  S
C2519      C2520   1.533       .  S
C2519      C2525   1.544       .  S
C2519      C2523   1.536       .  S
C2519      C2697   1.538       .  S
C2520      H2527   1.087       .  S
C2520      C2521   1.364       .  D
C2521      C2685   1.479       .  S
C2521      C2522   1.537       .  S
C2522      C2526   1.533       .  S
C2522      C2524   1.536       .  S
C2522      H2528   1.111       .  S
C2523      H2529   1.086       .  S
C2523      C2524   1.365       .  D
C2524      C2673   1.469       .  S
C2525      H2530   1.084       .  S
C2525      C2526   1.368       .  D
C2531      C2532   1.543       .  S
C2531      C2537   1.534       .  S
C2531      C2535   1.536       .  S
C2531      C2736   1.542       .  S
C2532      H2539   1.087       .  S
C2532      C2533   1.368       .  D
C2533      C2649   1.477       .  S
C2533      C2534   1.536       .  S
C2534      C2538   1.532       .  S
C2534      C2536   1.532       .  S
C2534      H2540   1.111       .  S
C2535      H2541   1.078       .  S
C2535      C2536   1.361       .  D
C2536      C2661   1.473       .  S
C2537      H2542   1.087       .  S
C2537      C2538   1.370       .  D
C2543      C2544   1.522       .  S
C2543      C2549   1.524       .  S
C2543      C2547   1.545       .  S
C2543      C2664   1.534       .  S
C2544      H2551   1.088       .  S
C2544      C2545   1.359       .  D
C2545      C2625   1.492       .  S
C2545      C2546   1.547       .  S
C2546      C2550   1.550       .  S
C2546      C2548   1.550       .  S
C2546      H2552   1.109       .  S
C2547      H2553   1.085       .  S
C2547      C2548   1.370       .  D
C2548      C2640   1.506       .  S
C2549      H2554   1.076       .  S
C2549      C2550   1.365       .  D
C2550      C2607   1.466       .  S
C2555      C2556   1.509       .  S
C2555      C2561   1.522       .  S
C2555      C2559   1.551       .  S
C2555      C2784   1.533       .  S
C2556      H2563   1.088       .  S
C2556      C2557   1.360       .  D
C2557      C2558   1.554       .  S
C2558      C2562   1.552       .  S
C2558      C2560   1.552       .  S
C2558      H2564   1.108       .  S
C2559      H2565   1.083       .  S
C2559      C2560   1.383       .  D
C2560      C2637   1.509       .  S
C2561      H2566   1.088       .  S
C2561      C2562   1.359       .  D
C2562      C2688   1.482       .  S
C2567      C2568   1.526       .  S
C2567      C2573   1.534       .  S
C2567      C2571   1.536       .  S
C2567      C2676   1.534       .  S
C2568      H2575   1.087       .  S
C2568      C2569   1.362       .  D
C2569      C2628   1.477       .  S
C2569      C2570   1.552       .  S
C2570      C2574   1.536       .  S
C2570      C2572   1.548       .  S
C2570      H2576   1.107       .  S
C2571      H2577   1.084       .  S
C2571      C2572   1.371       .  D
C2572      C2613   1.506       .  S
C2573      H2578   1.079       .  S
C2573      C2574   1.360       .  D
C2574      C2611   1.462       .  S
C2579      C2580   1.525       .  S
C2579      C2585   1.528       .  S
C2579      C2583   1.549       .  S
C2579      C2820   1.547       .  S
C2580      H2587   1.087       .  S
C2580      C2581   1.364       .  D
C2581      C2582   1.540       .  S
C2582      C2586   1.543       .  S
C2582      C2584   1.548       .  S
C2582      H2588   1.110       .  S
C2583      H2589   1.071       .  S
C2583      C2584   1.379       .  D
C2584      C2616   1.502       .  S
C2585      H2590   1.087       .  S
C2585      C2586   1.359       .  D
C2586      C2652   1.477       .  S
O2591      C2606   1.259       .  A
O2591     Al2599   1.920       .  S
C2592      O2602   1.260       .  A
C2592      O2593   1.264       .  A
O2593     Al2595   1.889       .  S
O2594      C2596   1.256       .  A
O2594     Al2595   1.869       .  S
Al2595     O2603   1.887       .  S
Al2595     O2605   1.891       .  S
Al2595     O2604   1.764       .  S
C2596      O2609   1.267       .  A
O2597      C2607   1.261       .  A
O2597     Al2599   1.881       .  S
O2598      C2611   1.259       .  A
O2598     Al2608   1.875       .  S
Al2599     O2612   1.926       .  S
Al2599     O2609   1.952       .  S
Al2599     O2604   1.795       .  S
O2600      C2607   1.261       .  A
O2600     Al2608   1.924       .  S
O2601      C2610   1.266       .  A
O2601     Al2608   1.938       .  S
O2602     Al2608   1.924       .  S
O2603      C2610   1.259       .  A
O2604     Al2608   1.793       .  S
O2605      C2606   1.263       .  A
C2611      O2612   1.264       .  A
C2613      C2614   1.410       .  A
C2613      C2618   1.417       .  A
C2614      H2619   1.085       .  S
C2615      C2616   1.414       .  A
C2615      C2622   1.444       .  S
C2616      C2617   1.406       .  A
C2617      H2620   1.083       .  S
C2618      C2621   1.442       .  S
C2621      N2623   1.158       .  T
C2622      N2624   1.157       .  T
C2625      C2626   1.407       .  A
C2625      C2630   1.411       .  A
C2626      C3031   1.384       .  A
C2626      H2631   1.085       .  S
C2627      C3030   1.384   1_554  A
C2627      C2628   1.405       .  A
C2627      C2634   1.443       .  S
C2628      C2629   1.409       .  A
C2629      C3034   1.413   1_554  A
C2629      H2632   1.084       .  S
C2630      C3033   1.413       .  A
C2630      C2633   1.442       .  S
C2633      N2635   1.157       .  T
C2634      N2636   1.156       .  T
C2637      C2638   1.406       .  A
C2637      C2642   1.421       .  A
C2638      H2643   1.085       .  S
C2639      C2640   1.418       .  A
C2639      C2646   1.441       .  S
C2640      C2641   1.404       .  A
C2641      H2644   1.084       .  S
C2642      C2645   1.441       .  S
C2645      N2647   1.157       .  T
C2646      N2648   1.156       .  T
C2649      C2650   1.398       .  A
C2649      C2654   1.408       .  A
C2650      C3055   1.397       .  A
C2650      H2655   1.084       .  S
C2651      C3054   1.397   1_554  A
C2651      C2652   1.411       .  A
C2651      C2658   1.440       .  S
C2652      C2653   1.404       .  A
C2653      C3058   1.403   1_554  A
C2653      H2656   1.084       .  S
C2654      C3057   1.403       .  A
C2654      C2657   1.442       .  S
C2657      N2659   1.157       .  T
C2658      N2660   1.156       .  T
C2661      C2662   1.398       .  A
C2661      C2666   1.405       .  A
C2662      H2667   1.086       .  S
C2663      C2664   1.426       .  A
C2663      C2670   1.440       .  S
C2664      C2665   1.414       .  A
C2665      H2668   1.085       .  S
C2666      C2669   1.447       .  S
C2669      N2671   1.157       .  T
C2670      N2672   1.158       .  T
C2673      C2674   1.393       .  A
C2673      C2678   1.400       .  A
C2674      H2679   1.083       .  S
C2675      C2676   1.422       .  A
C2675      C2682   1.441       .  S
C2676      C2677   1.416       .  A
C2677      H2680   1.073       .  S
C2678      C2681   1.441       .  S
C2681      N2683   1.156       .  T
C2682      N2684   1.156       .  T
C2685      C2686   1.398       .  A
C2685      C2690   1.409       .  A
C2686      C3091   1.395   1_554  A
C2686      H2691   1.083       .  S
C2687      C3090   1.395       .  A
C2687      C2688   1.416       .  A
C2687      C2694   1.446       .  S
C2688      C2689   1.404       .  A
C2689      C3094   1.407       .  A
C2689      H2692   1.084       .  S
C2690      C3093   1.407   1_554  A
C2690      C2693   1.442       .  S
C2693      N2695   1.157       .  T
C2694      N2696   1.157       .  T
C2697      C2698   1.403       .  A
C2697      C2702   1.424       .  A
C2698      C2699   1.394       .  A
C2698      H2703   1.080       .  S
C2699      C2700   1.427       .  A
C2699      C2706   1.447       .  S
C2700      C2701   1.404       .  A
C2701      C2702   1.405       .  A
C2701      H2704   1.082       .  S
C2702      C2705   1.444       .  S
C2705      N2707   1.157       .  T
C2706      N2708   1.157       .  T
C2709      C2710   1.407       .  A
C2709      C2714   1.413       .  A
C2710      H2715   1.085       .  S
C2711      C2712   1.413       .  A
C2711      C2718   1.445       .  S
C2712      C2713   1.409       .  A
C2713      H2716   1.085       .  S
C2714      C2717   1.442       .  S
C2717      N2719   1.157       .  T
C2718      N2720   1.157       .  T
C2721      C2722   1.401       .  A
C2721      C2726   1.421       .  A
C2722      C3127   1.404       .  A
C2722      H2727   1.080       .  S
C2723      C3126   1.404   1_554  A
C2723      C2724   1.417       .  A
C2723      C2730   1.445       .  S
C2724      C2725   1.399       .  A
C2725      C3130   1.399   1_554  A
C2725      H2728   1.083       .  S
C2726      C3129   1.399       .  A
C2726      C2729   1.445       .  S
C2729      N2731   1.157       .  T
C2730      N2732   1.157       .  T
C2733      C2734   1.403       .  A
C2733      C2738   1.425       .  A
C2734      C2735   1.407       .  A
C2734      H2739   1.082       .  S
C2735      C2736   1.427       .  A
C2735      C2742   1.441       .  S
C2736      C2737   1.402       .  A
C2737      C2738   1.395       .  A
C2737      H2740   1.085       .  S
C2738      C2741   1.447       .  S
C2741      N2743   1.158       .  T
C2742      N2744   1.157       .  T
C2745      C2746   1.408       .  A
C2745      C2750   1.410       .  A
C2746      H2751   1.083       .  S
C2747      C2748   1.413       .  A
C2747      C2754   1.439       .  S
C2748      C2749   1.413       .  A
C2749      H2752   1.085       .  S
C2750      C2753   1.440       .  S
C2753      N2755   1.156       .  T
C2754      N2756   1.156       .  T
C2757      C2758   1.403       .  A
C2757      C2762   1.414       .  A
C2758      C3163   1.398       .  A
C2758      H2763   1.085       .  S
C2759      C3162   1.398   1_554  A
C2759      C2760   1.412       .  A
C2759      C2766   1.444       .  S
C2760      C2761   1.402       .  A
C2761      C3166   1.403   1_554  A
C2761      H2764   1.085       .  S
C2762      C3165   1.403       .  A
C2762      C2765   1.441       .  S
C2765      N2767   1.157       .  T
C2766      N2768   1.157       .  T
C2769      C2770   1.398       .  A
C2769      C2774   1.415       .  A
C2770      H2775   1.085       .  S
C2771      C2772   1.425       .  A
C2771      C2778   1.444       .  S
C2772      C2773   1.408       .  A
C2773      H2776   1.083       .  S
C2774      C2777   1.446       .  S
C2777      N2779   1.158       .  T
C2778      N2780   1.158       .  T
C2781      C2782   1.404       .  A
C2781      C2786   1.423       .  A
C2782      C2783   1.395       .  A
C2782      H2787   1.085       .  S
C2783      C2784   1.424       .  A
C2783      C2790   1.447       .  S
C2784      C2785   1.405       .  A
C2785      C2786   1.405       .  A
C2785      H2788   1.081       .  S
C2786      C2789   1.443       .  S
C2789      N2791   1.158       .  T
C2790      N2792   1.157       .  T
C2793      C2794   1.398       .  A
C2793      C2798   1.414       .  A
C2794      H2799   1.085       .  S
C2795      C2796   1.427       .  A
C2795      C2802   1.443       .  S
C2796      C2797   1.408       .  A
C2797      H2800   1.082       .  S
C2798      C2801   1.447       .  S
C2801      N2803   1.158       .  T
C2802      N2804   1.158       .  T
C2805      C2806   1.404       .  A
C2805      C2810   1.418       .  A
C2806      C3211   1.407       .  A
C2806      H2811   1.084       .  S
C2807      C3210   1.407   1_554  A
C2807      C2808   1.409       .  A
C2807      C2814   1.443       .  S
C2808      C2809   1.397       .  A
C2809      C3214   1.393   1_554  A
C2809      H2812   1.085       .  S
C2810      C3213   1.393       .  A
C2810      C2813   1.446       .  S
C2813      N2815   1.158       .  T
C2814      N2816   1.157       .  T
C2817      C2818   1.416       .  A
C2817      C2822   1.413       .  A
C2818      C2819   1.406       .  A
C2818      H2823   1.076       .  S
C2819      C2820   1.418       .  A
C2819      C2826   1.440       .  S
C2820      C2821   1.414       .  A
C2821      C2822   1.397       .  A
C2821      H2824   1.086       .  S
C2822      C2825   1.443       .  S
C2825      N2827   1.156       .  T
C2826      N2828   1.158       .  T
O2829      C2844   1.262       .  A
O2829     Al2837   1.926       .  S
C2830      O2840   1.260       .  A
C2830      O2831   1.261       .  A
C2830      C2961   1.482       .  S
O2831     Al2833   1.884       .  S
O2832      C2834   1.256       .  A
O2832     Al2833   1.871       .  S
Al2833     O2841   1.876       .  S
Al2833     O2843   1.878       .  S
Al2833     O2842   1.771       .  S
C2834      O2847   1.267       .  A
C2834      C2942   1.469       .  S
O2835      C2845   1.263       .  A
O2835     Al2837   1.891       .  S
O2836      C2849   1.263       .  A
O2836     Al2846   1.885       .  S
Al2837     O2850   1.926       .  S
Al2837     O2847   1.943       .  S
Al2837     O2842   1.791       .  S
O2838      C2845   1.258       .  A
O2838     Al2846   1.906       .  S
O2839      C2848   1.264       .  A
O2839     Al2846   1.937       .  S
O2840     Al2846   1.927       .  S
O2841      C2848   1.256       .  A
O2842     Al2846   1.794       .  S
O2843      C2844   1.258       .  A
C2844      C2985   1.478       .  S
C2845      C2894   1.461       .  S
C2848      C2930   1.470       .  S
C2849      O2850   1.263       .  A
C2849      C2906   1.467       .  S
C2851      C2852   1.537       .  S
C2851      C2857   1.537       .  S
C2851      C2855   1.541       .  S
C2851      C3221   1.546       .  S
C2852      H2859   1.087       .  S
C2852      C2853   1.364       .  D
C2853      C3212   1.477       .  S
C2853      C2854   1.529       .  S
C2854      C2858   1.542       .  S
C2854      C2856   1.536       .  S
C2854      H2860   1.111       .  S
C2855      H2861   1.079       .  S
C2855      C2856   1.363       .  D
C2856      C3197   1.485       .  S
C2857      H2862   1.086       .  S
C2857      C2858   1.372       .  D
C2858      C3014   1.473       .  S
C2863      C2864   1.545       .  S
C2863      C2869   1.528       .  S
C2863      C2867   1.534       .  S
C2863      C3185   1.539       .  S
C2864      H2871   1.086       .  S
C2864      C2865   1.367       .  D
C2865      C3161   1.485       .  S
C2865      C2866   1.534       .  S
C2866      C2870   1.537       .  S
C2866      C2868   1.544       .  S
C2866      H2872   1.110       .  S
C2867      H2873   1.077       .  S
C2867      C2868   1.364       .  D
C2868      C3173   1.483       .  S
C2869      H2874   1.087       .  S
C2869      C2870   1.368       .  D
C2870      C3000   1.470       .  S
C2875      C2876   1.506       .  S
C2875      C2881   1.521       .  S
C2875      C2879   1.558       .  S
C2875      C3137   1.534       .  S
C2876      H2883   1.088       .  S
C2876      C2877   1.358       .  D
C2877      C2996   1.483       .  S
C2877      C2878   1.557       .  S
C2878      C2882   1.549       .  S
C2878      C2880   1.547       .  S
C2878      H2884   1.110       .  S
C2879      H2885   1.083       .  S
C2879      C2880   1.386       .  D
C2880      C3149   1.508       .  S
C2881      H2886   1.088       .  S
C2881      C2882   1.358       .  D
C2882      C3209   1.482       .  S
C2887      C2888   1.521       .  S
C2887      C2893   1.527       .  S
C2887      C2891   1.532       .  S
C2887      C3176   1.529       .  S
C2888      H2895   1.084       .  S
C2888      C2889   1.368       .  D
C2889      C3125   1.504       .  S
C2889      C2890   1.559       .  S
C2890      C2894   1.542       .  S
C2890      C2892   1.566       .  S
C2890      H2896   1.109       .  S
C2891      H2897   1.086       .  S
C2891      C2892   1.367       .  D
C2892      C3152   1.508       .  S
C2893      H2898   1.085       .  S
C2893      C2894   1.357       .  D
C2899      C2900   1.528       .  S
C2899      C2905   1.527       .  S
C2899      C2903   1.541       .  S
C2899      C3200   1.535       .  S
C2900      H2907   1.086       .  S
C2900      C2901   1.367       .  D
C2901      C3128   1.491       .  S
C2901      C2902   1.548       .  S
C2902      C2906   1.546       .  S
C2902      C2904   1.554       .  S
C2902      H2908   1.110       .  S
C2903      H2909   1.085       .  S
C2903      C2904   1.366       .  D
C2904      C3113   1.502       .  S
C2905      H2910   1.084       .  S
C2905      C2906   1.363       .  D
C2911      C2912   1.516       .  S
C2911      C2917   1.524       .  S
C2911      C2915   1.546       .  S
C2911      C3104   1.535       .  S
C2912      H2919   1.087       .  S
C2912      C2913   1.359       .  D
C2913      C3010   1.480       .  S
C2913      C2914   1.550       .  S
C2914      C2918   1.543       .  S
C2914      C2916   1.556       .  S
C2914      H2920   1.110       .  S
C2915      H2921   1.084       .  S
C2915      C2916   1.381       .  D
C2916      C3116   1.502       .  S
C2917      H2922   1.088       .  S
C2917      C2918   1.361       .  D
C2918      C3164   1.483       .  S
C2923      C2924   1.533       .  S
C2923      C2929   1.544       .  S
C2923      C2927   1.536       .  S
C2923      C3101   1.538       .  S
C2924      H2931   1.087       .  S
C2924      C2925   1.364       .  D
C2925      C3089   1.479       .  S
C2925      C2926   1.537       .  S
C2926      C2930   1.533       .  S
C2926      C2928   1.536       .  S
C2926      H2932   1.111       .  S
C2927      H2933   1.086       .  S
C2927      C2928   1.365       .  D
C2928      C3077   1.469       .  S
C2929      H2934   1.084       .  S
C2929      C2930   1.368       .  D
C2935      C2936   1.543       .  S
C2935      C2941   1.534       .  S
C2935      C2939   1.536       .  S
C2935      C3140   1.542       .  S
C2936      H2943   1.087       .  S
C2936      C2937   1.368       .  D
C2937      C3053   1.477       .  S
C2937      C2938   1.536       .  S
C2938      C2942   1.532       .  S
C2938      C2940   1.532       .  S
C2938      H2944   1.111       .  S
C2939      H2945   1.078       .  S
C2939      C2940   1.361       .  D
C2940      C3065   1.473       .  S
C2941      H2946   1.087       .  S
C2941      C2942   1.370       .  D
C2947      C2948   1.522       .  S
C2947      C2953   1.524       .  S
C2947      C2951   1.545       .  S
C2947      C3068   1.534       .  S
C2948      H2955   1.088       .  S
C2948      C2949   1.359       .  D
C2949      C3029   1.492       .  S
C2949      C2950   1.547       .  S
C2950      C2954   1.550       .  S
C2950      C2952   1.550       .  S
C2950      H2956   1.109       .  S
C2951      H2957   1.085       .  S
C2951      C2952   1.370       .  D
C2952      C3044   1.506       .  S
C2953      H2958   1.076       .  S
C2953      C2954   1.365       .  D
C2954      C3011   1.466       .  S
C2959      C2960   1.509       .  S
C2959      C2965   1.522       .  S
C2959      C2963   1.551       .  S
C2959      C3188   1.533       .  S
C2960      H2967   1.088       .  S
C2960      C2961   1.360       .  D
C2961      C2962   1.554       .  S
C2962      C2966   1.552       .  S
C2962      C2964   1.552       .  S
C2962      H2968   1.108       .  S
C2963      H2969   1.083       .  S
C2963      C2964   1.383       .  D
C2964      C3041   1.509       .  S
C2965      H2970   1.088       .  S
C2965      C2966   1.359       .  D
C2966      C3092   1.482       .  S
C2971      C2972   1.526       .  S
C2971      C2977   1.534       .  S
C2971      C2975   1.536       .  S
C2971      C3080   1.534       .  S
C2972      H2979   1.087       .  S
C2972      C2973   1.362       .  D
C2973      C3032   1.477       .  S
C2973      C2974   1.552       .  S
C2974      C2978   1.536       .  S
C2974      C2976   1.548       .  S
C2974      H2980   1.107       .  S
C2975      H2981   1.084       .  S
C2975      C2976   1.371       .  D
C2976      C3017   1.506       .  S
C2977      H2982   1.079       .  S
C2977      C2978   1.360       .  D
C2978      C3015   1.462       .  S
C2983      C2984   1.525       .  S
C2983      C2989   1.528       .  S
C2983      C2987   1.549       .  S
C2983      C3224   1.547       .  S
C2984      H2991   1.087       .  S
C2984      C2985   1.364       .  D
C2985      C2986   1.540       .  S
C2986      C2990   1.543       .  S
C2986      C2988   1.548       .  S
C2986      H2992   1.110       .  S
C2987      H2993   1.071       .  S
C2987      C2988   1.379       .  D
C2988      C3020   1.502       .  S
C2989      H2994   1.087       .  S
C2989      C2990   1.359       .  D
C2990      C3056   1.477       .  S
O2995      C3010   1.259       .  A
O2995     Al3003   1.920       .  S
C2996      O3006   1.260       .  A
C2996      O2997   1.264       .  A
O2997     Al2999   1.889       .  S
O2998      C3000   1.256       .  A
O2998     Al2999   1.869       .  S
Al2999     O3007   1.887       .  S
Al2999     O3009   1.891       .  S
Al2999     O3008   1.764       .  S
C3000      O3013   1.267       .  A
O3001      C3011   1.261       .  A
O3001     Al3003   1.881       .  S
O3002      C3015   1.259       .  A
O3002     Al3012   1.875       .  S
Al3003     O3016   1.926       .  S
Al3003     O3013   1.952       .  S
Al3003     O3008   1.795       .  S
O3004      C3011   1.261       .  A
O3004     Al3012   1.924       .  S
O3005      C3014   1.266       .  A
O3005     Al3012   1.938       .  S
O3006     Al3012   1.924       .  S
O3007      C3014   1.259       .  A
O3008     Al3012   1.793       .  S
O3009      C3010   1.263       .  A
C3015      O3016   1.264       .  A
C3017      C3018   1.410       .  A
C3017      C3022   1.417       .  A
C3018      H3023   1.085       .  S
C3019      C3020   1.414       .  A
C3019      C3026   1.444       .  S
C3020      C3021   1.406       .  A
C3021      H3024   1.083       .  S
C3022      C3025   1.442       .  S
C3025      N3027   1.158       .  T
C3026      N3028   1.157       .  T
C3029      C3030   1.407       .  A
C3029      C3034   1.411       .  A
C3030      H3035   1.085       .  S
C3031      C3032   1.405       .  A
C3031      C3038   1.443       .  S
C3032      C3033   1.409       .  A
C3033      H3036   1.084       .  S
C3034      C3037   1.442       .  S
C3037      N3039   1.157       .  T
C3038      N3040   1.156       .  T
C3041      C3042   1.406       .  A
C3041      C3046   1.421       .  A
C3042      H3047   1.085       .  S
C3043      C3044   1.418       .  A
C3043      C3050   1.441       .  S
C3044      C3045   1.404       .  A
C3045      H3048   1.084       .  S
C3046      C3049   1.441       .  S
C3049      N3051   1.157       .  T
C3050      N3052   1.156       .  T
C3053      C3054   1.398       .  A
C3053      C3058   1.408       .  A
C3054      H3059   1.084       .  S
C3055      C3056   1.411       .  A
C3055      C3062   1.440       .  S
C3056      C3057   1.404       .  A
C3057      H3060   1.084       .  S
C3058      C3061   1.442       .  S
C3061      N3063   1.157       .  T
C3062      N3064   1.156       .  T
C3065      C3066   1.398       .  A
C3065      C3070   1.405       .  A
C3066      H3071   1.086       .  S
C3067      C3068   1.426       .  A
C3067      C3074   1.440       .  S
C3068      C3069   1.414       .  A
C3069      H3072   1.085       .  S
C3070      C3073   1.447       .  S
C3073      N3075   1.157       .  T
C3074      N3076   1.158       .  T
C3077      C3078   1.393       .  A
C3077      C3082   1.400       .  A
C3078      H3083   1.083       .  S
C3079      C3080   1.422       .  A
C3079      C3086   1.441       .  S
C3080      C3081   1.416       .  A
C3081      H3084   1.073       .  S
C3082      C3085   1.441       .  S
C3085      N3087   1.156       .  T
C3086      N3088   1.156       .  T
C3089      C3090   1.398       .  A
C3089      C3094   1.409       .  A
C3090      H3095   1.083       .  S
C3091      C3092   1.416       .  A
C3091      C3098   1.446       .  S
C3092      C3093   1.404       .  A
C3093      H3096   1.084       .  S
C3094      C3097   1.442       .  S
C3097      N3099   1.157       .  T
C3098      N3100   1.157       .  T
C3101      C3102   1.403       .  A
C3101      C3106   1.424       .  A
C3102      C3103   1.394       .  A
C3102      H3107   1.080       .  S
C3103      C3104   1.427       .  A
C3103      C3110   1.447       .  S
C3104      C3105   1.404       .  A
C3105      C3106   1.405       .  A
C3105      H3108   1.082       .  S
C3106      C3109   1.444       .  S
C3109      N3111   1.157       .  T
C3110      N3112   1.157       .  T
C3113      C3114   1.407       .  A
C3113      C3118   1.413       .  A
C3114      H3119   1.085       .  S
C3115      C3116   1.413       .  A
C3115      C3122   1.445       .  S
C3116      C3117   1.409       .  A
C3117      H3120   1.085       .  S
C3118      C3121   1.442       .  S
C3121      N3123   1.157       .  T
C3122      N3124   1.157       .  T
C3125      C3126   1.401       .  A
C3125      C3130   1.421       .  A
C3126      H3131   1.080       .  S
C3127      C3128   1.417       .  A
C3127      C3134   1.445       .  S
C3128      C3129   1.399       .  A
C3129      H3132   1.083       .  S
C3130      C3133   1.445       .  S
C3133      N3135   1.157       .  T
C3134      N3136   1.157       .  T
C3137      C3138   1.403       .  A
C3137      C3142   1.425       .  A
C3138      C3139   1.407       .  A
C3138      H3143   1.082       .  S
C3139      C3140   1.427       .  A
C3139      C3146   1.441       .  S
C3140      C3141   1.402       .  A
C3141      C3142   1.395       .  A
C3141      H3144   1.085       .  S
C3142      C3145   1.447       .  S
C3145      N3147   1.158       .  T
C3146      N3148   1.157       .  T
C3149      C3150   1.408       .  A
C3149      C3154   1.410       .  A
C3150      H3155   1.083       .  S
C3151      C3152   1.413       .  A
C3151      C3158   1.439       .  S
C3152      C3153   1.413       .  A
C3153      H3156   1.085       .  S
C3154      C3157   1.440       .  S
C3157      N3159   1.156       .  T
C3158      N3160   1.156       .  T
C3161      C3162   1.403       .  A
C3161      C3166   1.414       .  A
C3162      H3167   1.085       .  S
C3163      C3164   1.412       .  A
C3163      C3170   1.444       .  S
C3164      C3165   1.402       .  A
C3165      H3168   1.085       .  S
C3166      C3169   1.441       .  S
C3169      N3171   1.157       .  T
C3170      N3172   1.157       .  T
C3173      C3174   1.398       .  A
C3173      C3178   1.415       .  A
C3174      H3179   1.085       .  S
C3175      C3176   1.425       .  A
C3175      C3182   1.444       .  S
C3176      C3177   1.408       .  A
C3177      H3180   1.083       .  S
C3178      C3181   1.446       .  S
C3181      N3183   1.158       .  T
C3182      N3184   1.158       .  T
C3185      C3186   1.404       .  A
C3185      C3190   1.423       .  A
C3186      C3187   1.395       .  A
C3186      H3191   1.085       .  S
C3187      C3188   1.424       .  A
C3187      C3194   1.447       .  S
C3188      C3189   1.405       .  A
C3189      C3190   1.405       .  A
C3189      H3192   1.081       .  S
C3190      C3193   1.443       .  S
C3193      N3195   1.158       .  T
C3194      N3196   1.157       .  T
C3197      C3198   1.398       .  A
C3197      C3202   1.414       .  A
C3198      H3203   1.085       .  S
C3199      C3200   1.427       .  A
C3199      C3206   1.443       .  S
C3200      C3201   1.408       .  A
C3201      H3204   1.082       .  S
C3202      C3205   1.447       .  S
C3205      N3207   1.158       .  T
C3206      N3208   1.158       .  T
C3209      C3210   1.404       .  A
C3209      C3214   1.418       .  A
C3210      H3215   1.084       .  S
C3211      C3212   1.409       .  A
C3211      C3218   1.443       .  S
C3212      C3213   1.397       .  A
C3213      H3216   1.085       .  S
C3214      C3217   1.446       .  S
C3217      N3219   1.158       .  T
C3218      N3220   1.157       .  T
C3221      C3222   1.416       .  A
C3221      C3226   1.413       .  A
C3222      C3223   1.406       .  A
C3222      H3227   1.076       .  S
C3223      C3224   1.418       .  A
C3223      C3230   1.440       .  S
C3224      C3225   1.414       .  A
C3225      C3226   1.397       .  A
C3225      H3228   1.086       .  S
C3226      C3229   1.443       .  S
C3229      N3231   1.156       .  T
C3230      N3232   1.158       .  T
