geometry optimzed in LAMMPS
_audit_creation_date              2020-11-30 
_audit_creation_method            'lammps2cif' 
_symmetry_space_group_name_H-M    'P1' 
_symmetry_Int_Tables_number       1 
_symmetry_cell_setting            triclinic 
loop_ 
_symmetry_equiv_pos_as_xyz 
  x,y,z 
_cell_length_a                    45.19599036 
_cell_length_b                    45.173561544438726 
_cell_length_c                    181.3050773156334 
_cell_angle_alpha                 89.97773083181076 
_cell_angle_beta                  89.94061887168876 
_cell_angle_gamma                 90.20272894726416 
loop_ 
_atom_site_label 
_atom_site_type_symbol 
_atom_site_fract_x 
_atom_site_fract_y 
_atom_site_fract_z 
_atom_site_charge 
C1          C  0.67286297  0.56991192  0.83168693     0.87200
C2          C  0.67410841  0.60378170  0.83037324    -0.53100
C3          C  0.65528260  0.62008580  0.83462593     0.10100
C4          C  0.63578142  0.60091164  0.83967586     0.21100
C5          C  0.67636566  0.56606346  0.84008288    -0.53800
C6          C  0.65793625  0.58296561  0.84438571     0.10200
C7          C  0.64009593  0.56290239  0.83018664    -0.53300
C8          C  0.62070999  0.57834558  0.83441648     0.10800
H9          H  0.68769095  0.61476452  0.82603449     0.15300
H10         H  0.62032499  0.61460977  0.84286814     0.01000
H11         H  0.69254825  0.55086038  0.84238056     0.15600
H12         H  0.63263919  0.54712983  0.82603510     0.15400
C13         C  0.34462732  0.57170076  0.83012380     0.87200
C14         C  0.37858758  0.56774426  0.82934865    -0.53100
C15         C  0.39562358  0.58414352  0.83417231     0.10100
C16         C  0.37625052  0.60358027  0.83925719     0.21100
C17         C  0.33955997  0.56450901  0.83836897    -0.53800
C18         C  0.35568563  0.58132394  0.84319105     0.10200
C19         C  0.33962548  0.60484799  0.82940040    -0.53300
C20         C  0.35594996  0.62168960  0.83405249     0.10800
H21         H  0.38822753  0.55265841  0.82538257     0.15300
H22         H  0.38874792  0.61694096  0.84324118     0.01000
H23         H  0.32546251  0.54671415  0.84028405     0.15600
H24         H  0.32430909  0.61439592  0.82544860     0.15400
C25         C  0.65899011  0.89714014  0.83265246     0.87200
C26         C  0.62597685  0.90092961  0.83078023    -0.53100
C27         C  0.60743955  0.88203396  0.83438323     0.10100
C28         C  0.62323612  0.86131816  0.83986897     0.21100
C29         C  0.65869126  0.90168940  0.84110822    -0.53800
C30         C  0.64097528  0.88234520  0.84492701     0.10200
C31         C  0.66554583  0.86395212  0.83163136    -0.53300
C32         C  0.64693123  0.84506417  0.83529868     0.10800
H33         H  0.61768330  0.91799308  0.82710978     0.15300
H34         H  0.60790603  0.84616575  0.84281595     0.01000
H35         H  0.67001143  0.91920062  0.84401992     0.15600
H36         H  0.68398789  0.85617478  0.82832385     0.15400
C37         C  0.33070651  0.89669589  0.82980735     0.87200
C38         C  0.32471342  0.86325563  0.82957153    -0.53100
C39         C  0.34245067  0.84659378  0.83405472     0.10100
C40         C  0.36427558  0.86552012  0.83864629     0.21100
C41         C  0.32805286  0.90512679  0.83806621    -0.53800
C42         C  0.34500255  0.88834611  0.84268348     0.10200
C43         C  0.36432387  0.89993785  0.82842194    -0.53300
C44         C  0.38217762  0.88369824  0.83296253     0.10800
H45         H  0.30789928  0.85359626  0.82602987     0.15300
H46         H  0.37819930  0.85270821  0.84250945     0.01000
H47         H  0.31490326  0.92329035  0.84016094     0.15600
H48         H  0.37330246  0.91443407  0.82423738     0.15400
C49         C  0.67412484  0.56394243  0.91341884     0.87200
C50         C  0.64043226  0.55774336  0.91307641    -0.53100
C51         C  0.62482208  0.57711368  0.90881239     0.10100
C52         C  0.64444995  0.60006435  0.90483173     0.21100
C53         C  0.68284743  0.56263001  0.90516569    -0.53800
C54         C  0.66763409  0.58152753  0.90065454     0.10200
C55         C  0.67655077  0.59677808  0.91554480    -0.53300
C56         C  0.66171679  0.61602570  0.91104258     0.10800
H57         H  0.62940806  0.53921695  0.91569661     0.15300
H58         H  0.63180819  0.61490942  0.90113732     0.01000
H59         H  0.69903405  0.54724375  0.90300904     0.15600
H60         H  0.68908814  0.60403642  0.92032259     0.15400
C61         C  0.34849123  0.56787098  0.91209731     0.87200
C62         C  0.34207815  0.60154606  0.91216366    -0.53100
C63         C  0.35913653  0.61789092  0.90740985     0.10100
C64         C  0.38018775  0.59888500  0.90266468     0.21100
C65         C  0.34312600  0.56015084  0.90391807    -0.53800
C66         C  0.35993209  0.57563783  0.89899052     0.10200
C67         C  0.38216550  0.56569031  0.91320055    -0.53300
C68         C  0.39902779  0.58147295  0.90828354     0.10800
H69         H  0.32486062  0.61204058  0.91536469     0.15300
H70         H  0.39330887  0.61183026  0.89861000     0.01000
H71         H  0.32665161  0.54421499  0.90211135     0.15600
H72         H  0.39179935  0.55265671  0.91761494     0.15400
C73         C  0.67432900  0.89241654  0.91350791     0.87200
C74         C  0.68080027  0.86021234  0.91541296    -0.53100
C75         C  0.66434120  0.84029469  0.91160129     0.10100
C76         C  0.64201031  0.85433895  0.90616424     0.21100
C77         C  0.67763087  0.89415856  0.90498755    -0.53800
C78         C  0.66036223  0.87459615  0.90103528     0.10200
C79         C  0.64047062  0.89604713  0.91451171    -0.53300
C80         C  0.62348856  0.87602305  0.91073109     0.10800
H81         H  0.69744271  0.85362283  0.91940402     0.15300
H82         H  0.62781903  0.83825276  0.90328335     0.01000
H83         H  0.69169263  0.91033741  0.90232286     0.15600
H84         H  0.63054251  0.91413236  0.91754190     0.15400
C85         C  0.34795168  0.89339801  0.91170140     0.87200
C86         C  0.38134126  0.90017819  0.91214950    -0.53100
C87         C  0.39870441  0.88449891  0.90739817     0.10100
C88         C  0.38093647  0.86299082  0.90249415     0.21100
C89         C  0.33984021  0.89741164  0.90353564    -0.53800
C90         C  0.35710467  0.88200090  0.89864672     0.10200
C91         C  0.34732043  0.85944287  0.91293663    -0.53300
C92         C  0.36370195  0.84352719  0.90799311     0.10800
H93         H  0.39083484  0.91502470  0.91621133     0.15300
H94         H  0.39508912  0.85010218  0.89868063     0.01000
H95         H  0.32150377  0.91121452  0.90180481     0.15600
H96         H  0.33607559  0.84842031  0.91744170     0.15400
O97         O  0.38384548  0.90868878  0.44898207    -0.57100
C98         C  0.29826670  0.93276697  0.44497809     0.75500
O99         O  0.31778234  0.85196024  0.46015136    -0.58300
C100        C  0.39903525  0.89462071  0.45368440     0.75500
C101        C  0.32888309  0.93351390  0.46867868     0.77900
Cd102      Cd  0.33543372  0.89982799  0.45515974     1.37500
O103        O  0.32621251  0.93305372  0.44452410    -0.57100
O104        O  0.34587170  0.94177519  0.46352572    -0.55900
C105        C  0.32134638  0.83734679  0.45426377     0.77800
O106        O  0.31465671  0.90977017  0.46754287    -0.58300
O107        O  0.28748049  0.91632333  0.44995933    -0.56800
O108        O  0.38475161  0.88298769  0.45894163    -0.56700
O109        O  0.32952477  0.85207857  0.44867437    -0.55900
O110        O  0.32136017  0.10183445  0.52981051    -0.57100
C111        C  0.32610561  0.02374155  0.51975784     0.75500
O112        O  0.38370397  0.03461994  0.53937485    -0.58300
C113        C  0.32571556  0.11456331  0.53592717     0.75500
C114        C  0.30151447  0.01781636  0.54454992     0.77900
Cd115      Cd  0.33628912  0.05154157  0.53397350     1.37500
O116        O  0.30814000  0.04226437  0.52244195    -0.57100
O117        O  0.28946555  0.03322747  0.53956910    -0.55900
C118        C  0.40011887  0.04983241  0.53514841     0.77800
O119        O  0.32947482  0.01811914  0.54463424    -0.58300
O120        O  0.34796876  0.01729343  0.52377716    -0.56800
O121        O  0.33373847  0.09801865  0.54118110    -0.56700
O122        O  0.38690446  0.06605617  0.53051812    -0.55900
O123        O  0.31632326  0.54821183  0.46882455    -0.57100
C124        C  0.32473952  0.61363652  0.45612387     0.75500
O125        O  0.38835287  0.57563404  0.45468203    -0.58300
C126        C  0.33047542  0.52557456  0.47087762     0.75500
C127        C  0.30436027  0.51867975  0.44603534     0.77900
Cd128      Cd  0.33943056  0.55166608  0.45653201     1.37500
O129        O  0.32490286  0.59882181  0.46205203    -0.57100
O130        O  0.29284964  0.53076288  0.45161693    -0.55900
C131        C  0.40326706  0.55202737  0.45490462     0.77800
O132        O  0.33183400  0.52256796  0.44517507    -0.58300
O133        O  0.33039119  0.59939088  0.45026678    -0.56800
O134        O  0.34857979  0.51500277  0.46627431    -0.56700
O135        O  0.38852804  0.52842633  0.45572714    -0.55900
O136        O  0.30865177  0.41093743  0.52337218    -0.57100
C137        C  0.32335127  0.33905639  0.53642446     0.75500
O138        O  0.38130807  0.42483102  0.53902490    -0.58300
C139        C  0.32548397  0.43214491  0.52153194     0.75500
C140        C  0.29681759  0.43235601  0.54619520     0.77900
Cd141      Cd  0.33335847  0.40218532  0.53550455     1.37500
O142        O  0.31993540  0.35332971  0.53047302    -0.57100
O143        O  0.28612554  0.42041945  0.54047873    -0.55900
C144        C  0.39718890  0.40363809  0.53676723     0.77800
O145        O  0.32434475  0.42926829  0.54715123    -0.58300
O146        O  0.32966794  0.35436748  0.54206181    -0.56800
O147        O  0.34466292  0.43979744  0.52622243    -0.56700
O148        O  0.38332524  0.38170276  0.53413909    -0.55900
O149        O  0.70987742  0.91153810  0.46619437    -0.57100
C150        C  0.69886533  0.84107604  0.45317096     0.75500
O151        O  0.63792916  0.91581629  0.44853472    -0.58300
C152        C  0.69528415  0.93428754  0.46795656     0.75500
C153        C  0.72116588  0.93577782  0.44309674     0.77900
Cd154      Cd  0.68646449  0.90386028  0.45407280     1.37500
O155        O  0.70549196  0.85635900  0.45877379    -0.57100
O156        O  0.73327355  0.92249114  0.44843919    -0.55900
C157        C  0.62276923  0.90003453  0.45291260     0.77800
O158        O  0.69328627  0.93398234  0.44279429    -0.58300
O159        O  0.68826791  0.85523444  0.44776734    -0.56800
O160        O  0.67745946  0.94392967  0.46315240    -0.56700
O161        O  0.63700588  0.88666368  0.45789643    -0.55900
O162        O  0.70814860  0.04959101  0.52070553    -0.57100
C163        C  0.70392906  0.11707511  0.53461604     0.75500
O164        O  0.64151420  0.03353276  0.53824145    -0.58300
C165        C  0.69384285  0.02637358  0.51908412     0.75500
C166        C  0.72639914  0.02097621  0.54371097     0.77900
Cd167      Cd  0.68883802  0.05428855  0.53352165     1.37500
O168        O  0.71098544  0.10142989  0.52911216    -0.57100
O169        O  0.73502693  0.02876202  0.53736521    -0.55900
C170        C  0.62482044  0.05258274  0.53528404     0.77800
O171        O  0.70073607  0.02950965  0.54547408    -0.58300
O172        O  0.69093727  0.10332935  0.53978143    -0.56800
O173        O  0.67778607  0.01588380  0.52417403    -0.56700
O174        O  0.63770738  0.07270076  0.53162040    -0.55900
O175        O  0.70027469  0.52218485  0.44643527    -0.57100
C176        C  0.62726536  0.54732312  0.45582156     0.75500
O177        O  0.69955943  0.55610412  0.47052938    -0.58300
C178        C  0.72816651  0.52231778  0.44691896     0.75500
C179        C  0.69822247  0.61706062  0.45439077     0.77900
Cd180      Cd  0.69042316  0.55424113  0.45707246     1.37500
O181        O  0.64436053  0.54002901  0.45060142    -0.57100
O182        O  0.67966632  0.60150791  0.45090787    -0.55900
C183        C  0.69978024  0.52836634  0.47152608     0.77800
O184        O  0.71438253  0.60332553  0.45893919    -0.58300
O185        O  0.63952744  0.55702187  0.46160760    -0.56800
O186        O  0.73875165  0.53808662  0.45205633    -0.56700
O187        O  0.69672863  0.51256837  0.46581448    -0.55900
O188        O  0.71566850  0.35919950  0.53368764    -0.57100
C189        C  0.69458622  0.42989499  0.52179605     0.75500
O190        O  0.63777071  0.40324893  0.54311619    -0.58300
C191        C  0.69828706  0.34129110  0.53687480     0.75500
C192        C  0.71739013  0.43906687  0.54735921     0.77900
Cd193      Cd  0.68538451  0.40461871  0.53633631     1.37500
O194        O  0.68400904  0.40417296  0.52271496    -0.57100
O195        O  0.73028950  0.42762601  0.54186634    -0.55900
C196        C  0.62182144  0.41065525  0.53769522     0.77800
O197        O  0.68988825  0.43431211  0.54786143    -0.58300
O198        O  0.70158929  0.44380891  0.52760509    -0.56800
O199        O  0.67660072  0.35291225  0.54014322    -0.56700
O200        O  0.63544957  0.41675726  0.53178963    -0.55900
O201        O  0.33434015  0.03443587  0.72025124    -0.57100
C202        C  0.40269619  0.03859022  0.70608185     0.75500
O203        O  0.30953800  0.04529333  0.69648237    -0.58300
C204        C  0.31011755  0.04752507  0.72147418     0.75500
C205        C  0.34316574  0.11803865  0.70681866     0.77900
Cd206      Cd  0.34072278  0.05395101  0.70756866     1.37500
O207        O  0.38820410  0.03349975  0.71191863    -0.57100
O208        O  0.35788573  0.10322799  0.71144468    -0.55900
C209        C  0.30536888  0.01792418  0.69756578     0.77800
O210        O  0.32782963  0.10311010  0.70230256    -0.58300
O211        O  0.38811020  0.04912515  0.70073495    -0.56800
O212        O  0.30016860  0.06296920  0.71622692    -0.56700
O213        O  0.31824411  0.00704780  0.70313088    -0.55900
O214        O  0.21655947  0.04173374  0.79078403    -0.57100
C215        C  0.17525388  0.11847473  0.78716866     0.75500
O216        O  0.18110852  0.02712835  0.77246270    -0.58300
C217        C  0.20609384  0.01893200  0.79387247     0.75500
C218        C  0.10847699  0.04711295  0.78495778     0.77900
Cd219      Cd  0.17184895  0.05581251  0.78400427     1.37500
O220        O  0.18561529  0.09950253  0.79159793    -0.57100
O221        O  0.12424495  0.05284317  0.79054715    -0.55900
C222        C  0.19999476  0.04540161  0.76999168     0.77800
O223        O  0.12224122  0.04392757  0.77892199    -0.58300
O224        O  0.16312512  0.10839334  0.78140682    -0.56800
O225        O  0.17951386  0.01264219  0.79231702    -0.56700
O226        O  0.20475129  0.06810030  0.77387687    -0.55900
O227        O  0.69368985  0.02917331  0.71813465    -0.57100
C228        C  0.62591710  0.04190676  0.70384341     0.75500
O229        O  0.70440332  0.10265580  0.70082536    -0.58300
C230        C  0.71493681  0.04481336  0.72049359     0.75500
C231        C  0.72267248  0.02153927  0.69516693     0.77900
Cd232      Cd  0.68852075  0.05470391  0.70603108     1.37500
O233        O  0.63960766  0.03431909  0.70961089    -0.57100
O234        O  0.71075198  0.00896810  0.70066024    -0.55900
C235        C  0.68997001  0.11877313  0.70524650     0.77800
O236        O  0.71892708  0.04916967  0.69474848    -0.58300
O237        O  0.64134564  0.05452905  0.69893949    -0.56800
O238        O  0.72484026  0.06401742  0.71604159    -0.56700
O239        O  0.67459218  0.10518866  0.71001700    -0.55900
O240        O  0.81547908  0.02914435  0.77526607    -0.57100
C241        C  0.88369939  0.05042161  0.78641142     0.75500
O242        O  0.83110216  0.10392134  0.79375153    -0.58300
C243        C  0.79408018  0.04380710  0.77265377     0.75500
C244        C  0.78590239  0.02210065  0.79733393     0.77900
Cd245      Cd  0.81981807  0.05779852  0.78685650     1.37500
O246        O  0.86875962  0.05715662  0.78076638    -0.57100
O247        O  0.80313017  0.01063050  0.79265078    -0.55900
C248        C  0.81757184  0.12114684  0.78941626     0.77800
O249        O  0.78460714  0.05003820  0.79720662    -0.58300
O250        O  0.86901879  0.04607575  0.79226338    -0.56800
O251        O  0.78417291  0.06437161  0.77669061    -0.56700
O252        O  0.80442753  0.10894949  0.78405952    -0.55900
O253        O  0.73326478  0.41864611  0.69718120    -0.57100
C254        C  0.69517278  0.34370406  0.70511173     0.75500
O255        O  0.69623139  0.42235630  0.71952129    -0.58300
C256        C  0.72864082  0.44616477  0.69670248     0.75500
C257        C  0.63131409  0.41897135  0.70528516     0.77900
Cd258      Cd  0.69434520  0.40772424  0.70638631     1.37500
O259        O  0.70148868  0.36001896  0.69964322    -0.57100
O260        O  0.64545363  0.40620942  0.70016246    -0.55900
C261        C  0.72315277  0.41601342  0.72055076     0.77800
O262        O  0.64669273  0.42812356  0.71065238    -0.58300
O263        O  0.68817531  0.35710909  0.71096729    -0.56800
O264        O  0.70703655  0.45597964  0.70040455    -0.56700
O265        O  0.73693168  0.40688812  0.71492763    -0.55900
O266        O  0.80875384  0.41816016  0.79866908    -0.57100
C267        C  0.82932224  0.34478785  0.78874915     0.75500
O268        O  0.82533256  0.43506909  0.77518702    -0.58300
C269        C  0.79950139  0.44373079  0.79704596     0.75500
C270        C  0.89731830  0.41898234  0.78830297     0.77900
Cd271      Cd  0.83414180  0.40806264  0.78688884     1.37500
O272        O  0.81195468  0.36231490  0.79203697    -0.57100
O273        O  0.88084009  0.41698594  0.79392497    -0.55900
C274        C  0.80801446  0.41588832  0.77245993     0.77800
O275        O  0.88440542  0.41781429  0.78213466    -0.58300
O276        O  0.84910264  0.35659981  0.78477472    -0.56800
O277        O  0.80667475  0.45324104  0.79072033    -0.56700
O278        O  0.80225084  0.39383828  0.77651703    -0.55900
O279        O  0.33494500  0.43119011  0.72041016    -0.57100
C280        C  0.40708850  0.41981002  0.70748805     0.75500
O281        O  0.32869037  0.35855356  0.70320282    -0.58300
C282        C  0.31439178  0.41371852  0.72232846     0.75500
C283        C  0.31138636  0.44278511  0.69747858     0.77900
Cd284      Cd  0.34414841  0.40727511  0.70828909     1.37500
O285        O  0.39203371  0.42484581  0.71322846    -0.57100
O286        O  0.32318366  0.45426661  0.70312778    -0.55900
C287        C  0.34517028  0.34313154  0.70733297     0.77800
O288        O  0.31504171  0.41517354  0.69679940    -0.58300
O289        O  0.39278380  0.41063559  0.70193623    -0.56800
O290        O  0.30671697  0.39461400  0.71760596    -0.56700
O291        O  0.36146932  0.35738128  0.71175576    -0.55900
O292        O  0.18633373  0.42167148  0.77333276    -0.57100
C293        C  0.12090059  0.41673904  0.78876766     0.75500
O294        O  0.19367200  0.35931259  0.79357093    -0.58300
C295        C  0.21232610  0.41223213  0.77220898     0.75500
C296        C  0.21827047  0.44585506  0.79533100     0.77900
Cd297      Cd  0.18350169  0.40526644  0.78639856     1.37500
O298        O  0.13313057  0.42073237  0.78256533    -0.57100
O299        O  0.20331773  0.45478020  0.78987638    -0.55900
C300        C  0.18670456  0.34166452  0.78843408     0.77800
O301        O  0.21625587  0.41848006  0.79670119    -0.58300
O302        O  0.13773467  0.40836173  0.79391514    -0.56800
O303        O  0.22476986  0.39985098  0.77764064    -0.56700
O304        O  0.17820970  0.35346577  0.78247793    -0.55900
C305        C  0.86082504  0.57716637  0.66409040     0.87200
C306        C  0.85549478  0.61093537  0.66389935    -0.53100
C307        C  0.87324999  0.62614139  0.65908911     0.10100
C308        C  0.89378306  0.60592753  0.65451864     0.21100
C309        C  0.85562008  0.56849387  0.65594410    -0.53800
C310        C  0.87299307  0.58299664  0.65094508     0.10200
C311        C  0.89432861  0.57414570  0.66533288    -0.53300
C312        C  0.91197335  0.58851593  0.66030250     0.10800
H313        H  0.83853809  0.62233951  0.66699649     0.15300
H314        H  0.90706138  0.61794719  0.65033949     0.01000
H315        H  0.83895439  0.55259173  0.65422685     0.15600
H316        H  0.90312895  0.56186230  0.66997716     0.15400
C317        C  0.18848001  0.56700868  0.66124116     0.87200
C318        C  0.15543046  0.56561637  0.66337945    -0.53100
C319        C  0.13754081  0.58314573  0.65922584     0.10100
C320        C  0.15433041  0.60220699  0.65352206     0.21100
C321        C  0.18882850  0.56118901  0.65284964    -0.53800
C322        C  0.17154595  0.57994014  0.64869248     0.10200
C323        C  0.19550768  0.60048630  0.66206438    -0.53300
C324        C  0.17802838  0.61885705  0.65797480     0.10800
H325        H  0.14656331  0.55201074  0.66779464     0.15300
H326        H  0.13996719  0.61782558  0.65051098     0.01000
H327        H  0.20191686  0.54355636  0.65044350     0.15600
H328        H  0.21206876  0.60926123  0.66577852     0.15400
C329        C  0.85168859  0.90464921  0.65934268     0.87200
C330        C  0.88528996  0.90993130  0.66005658    -0.53100
C331        C  0.90270152  0.89136485  0.65597719     0.10100
C332        C  0.88438868  0.86883000  0.65144780     0.21100
C333        C  0.84564302  0.90616478  0.65107100    -0.53800
C334        C  0.86248550  0.88770553  0.64695353     0.10200
C335        C  0.84878422  0.87139150  0.66145051    -0.53300
C336        C  0.86561314  0.85226396  0.65727823     0.10800
H337        H  0.89507223  0.92547281  0.66386259     0.15300
H338        H  0.89737996  0.85365618  0.64793676     0.01000
H339        H  0.82955226  0.92106026  0.64863380     0.15600
H340        H  0.83544918  0.86413354  0.66608702     0.15400
C341        C  0.17787977  0.89550323  0.66191111     0.87200
C342        C  0.18143236  0.86169903  0.66286174    -0.53100
C343        C  0.16326710  0.84435014  0.65857979     0.10100
C344        C  0.14194379  0.86301153  0.65388726     0.21100
C345        C  0.18002006  0.90076261  0.65345536    -0.53800
C346        C  0.16211279  0.88305380  0.64923869     0.10200
C347        C  0.14501256  0.90133546  0.66336233    -0.53300
C348        C  0.12624963  0.88436008  0.65930621     0.10800
H349        H  0.19736666  0.85243638  0.66668468     0.15300
H350        H  0.12697224  0.84967839  0.65044752     0.01000
H351        H  0.19209760  0.91832516  0.65080107     0.15600
H352        H  0.13710474  0.91805549  0.66718628     0.15400
C353        C  0.17345683  0.56633189  0.57958744     0.87200
C354        C  0.17518479  0.59965246  0.57761742    -0.53100
C355        C  0.15876469  0.61763958  0.58207814     0.10100
C356        C  0.14073831  0.60064675  0.58794637     0.21100
C357        C  0.18081221  0.56481739  0.58784225    -0.53800
C358        C  0.16375363  0.58230977  0.59228402     0.10200
C359        C  0.13984332  0.56032613  0.57909891    -0.53300
C360        C  0.12259487  0.57779320  0.58349521     0.10800
H361        H  0.18713441  0.60862635  0.57293796     0.15300
H362        H  0.12692724  0.61530586  0.59143333     0.01000
H363        H  0.19819996  0.55072203  0.58999607     0.15600
H364        H  0.13021304  0.54420275  0.57537777     0.15400
C365        C  0.17831517  0.89399977  0.58055158     0.87200
C366        C  0.14479621  0.90007786  0.57960970    -0.53100
C367        C  0.12640587  0.88384745  0.58409705     0.10100
C368        C  0.14383123  0.86265346  0.58913926     0.21100
C369        C  0.18438862  0.89853788  0.58872467    -0.53800
C370        C  0.16666622  0.88241081  0.59324000     0.10200
C371        C  0.18011707  0.86008491  0.57936717    -0.53300
C372        C  0.16201446  0.84323128  0.58380278     0.10800
H373        H  0.13639007  0.91581208  0.57564262     0.15300
H374        H  0.12913020  0.84986761  0.59275163     0.01000
H375        H  0.20136369  0.91344895  0.59079600     0.15600
H376        H  0.19405633  0.85020159  0.57521005     0.15400
C377        C  0.84612202  0.56121694  0.58226703     0.87200
C378        C  0.87990381  0.55858684  0.58086663    -0.53100
C379        C  0.89706380  0.57792362  0.58481578     0.10100
C380        C  0.87880993  0.59929921  0.58957479     0.21100
C381        C  0.84265421  0.55980159  0.59072560    -0.53800
C382        C  0.86035563  0.57887010  0.59468167     0.10200
C383        C  0.84015337  0.59372305  0.58028754    -0.53300
C384        C  0.85642939  0.61371079  0.58415743     0.10800
H385        H  0.89001167  0.54421536  0.57683236     0.15300
H386        H  0.89319038  0.61517055  0.59248795     0.01000
H387        H  0.82718300  0.54460856  0.59331603     0.15600
H388        H  0.82412975  0.60054630  0.57616791     0.15400
C389        C  0.85108318  0.88887876  0.57750927     0.87200
C390        C  0.84729874  0.85501477  0.57676923    -0.53100
C391        C  0.86308628  0.83845260  0.58173407     0.10100
C392        C  0.88169979  0.85802856  0.58702688     0.21100
C393        C  0.84238954  0.89403974  0.58568880    -0.53800
C394        C  0.85875114  0.87853769  0.59077865     0.10200
C395        C  0.88443544  0.89419567  0.57709695    -0.53300
C396        C  0.90044615  0.87822516  0.58199175     0.10800
H397        H  0.83205157  0.84473126  0.57295140     0.15300
H398        H  0.89555035  0.84587773  0.59101921     0.01000
H399        H  0.82371099  0.90773186  0.58717213     0.15600
H400        H  0.89465919  0.90931976  0.57318328     0.15400
O401        O  0.81611566  0.05533109  0.96968754    -0.57100
C402        C  0.82177395  0.11913776  0.95605561     0.75500
O403        O  0.88493895  0.03821749  0.95192008    -0.58300
C404        C  0.82729068  0.03060766  0.97141052     0.75500
C405        C  0.80195517  0.02481651  0.94651771     0.77900
Cd406      Cd  0.83782430  0.05728072  0.95711078     1.37500
O407        O  0.82031030  0.10503155  0.96207005    -0.57100
O408        O  0.79907715  0.02138412  0.95340345    -0.55900
C409        C  0.90179307  0.05571652  0.95538643     0.77800
O410        O  0.82065985  0.04401270  0.94448874    -0.58300
O411        O  0.82915121  0.10421923  0.95045548    -0.56800
O412        O  0.84270129  0.01792304  0.96651110    -0.56700
O413        O  0.88902644  0.07366613  0.95966014    -0.55900
O414        O  0.81035989  0.85985692  0.03264222    -0.57100
C415        C  0.82855939  0.93072950  0.02142295     0.75500
O416        O  0.82784635  0.94949227  0.04341269    -0.58300
C417        C  0.82372646  0.84304886  0.03711542     0.75500
C418        C  0.90101687  0.91024620  0.03861366     0.77900
Cd419      Cd  0.83808246  0.90537199  0.03598146     1.37500
O420        O  0.84039522  0.90568665  0.02232044    -0.57100
O421        O  0.89058671  0.90266226  0.03243483    -0.55900
C422        C  0.80378036  0.94050774  0.04620486     0.77800
O423        O  0.88240601  0.91574778  0.04363394    -0.58300
O424        O  0.81993345  0.94355937  0.02722975    -0.56800
O425        O  0.84206566  0.85540428  0.04139767    -0.56700
O426        O  0.79550543  0.91466171  0.04439820    -0.55900
O427        O  0.86079429  0.60845900  0.03350499    -0.57100
C428        C  0.84280797  0.53208576  0.02265221     0.75500
O429        O  0.89472396  0.56367384  0.04545999    -0.58300
C430        C  0.84027380  0.61999973  0.03726234     0.75500
C431        C  0.81441081  0.52159128  0.04692561     0.77900
Cd432      Cd  0.85149773  0.55675217  0.03720518     1.37500
O433        O  0.83372377  0.55772055  0.02429035    -0.57100
O434        O  0.80422477  0.53393345  0.04120802    -0.55900
C435        C  0.91299326  0.55090876  0.04123795     0.77800
O436        O  0.84154254  0.52602144  0.04821834    -0.58300
O437        O  0.85551213  0.51796505  0.02776202    -0.56800
O438        O  0.82468339  0.60220403  0.04102240    -0.56700
O439        O  0.90271772  0.54118805  0.03522022    -0.55900
O440        O  0.81790769  0.41491948  0.97080658    -0.57100
C441        C  0.82202996  0.34178157  0.95840282     0.75500
O442        O  0.82483788  0.42385747  0.94602137    -0.58300
C443        C  0.83556510  0.43598933  0.97222905     0.75500
C444        C  0.90194085  0.40302120  0.95646743     0.77900
Cd445      Cd  0.83838479  0.40389132  0.95844192     1.37500
O446        O  0.82258945  0.35673820  0.96429761    -0.57100
O447        O  0.88856075  0.38386976  0.96032282    -0.55900
C448        C  0.80083446  0.43573592  0.94803260     0.77800
O449        O  0.88579395  0.42196002  0.95327938    -0.58300
O450        O  0.82776107  0.35581405  0.95252885    -0.56800
O451        O  0.85388179  0.44263369  0.96721330    -0.56700
O452        O  0.79376497  0.43209037  0.95472598    -0.55900
O453        O  0.19206683  0.85887305  0.03243084    -0.57100
C454        C  0.19686074  0.93101268  0.02299150     0.75500
O455        O  0.14001913  0.93824653  0.03862879    -0.58300
C456        C  0.19517841  0.84520258  0.03847375     0.75500
C457        C  0.22253734  0.94075315  0.04798815     0.77900
Cd458      Cd  0.18543316  0.90847483  0.03778210     1.37500
O459        O  0.21745598  0.92834710  0.02766080    -0.57100
O460        O  0.23221870  0.91969269  0.04409833    -0.55900
C461        C  0.12347782  0.91737941  0.04082618     0.77800
O462        O  0.19523269  0.94624149  0.04736107    -0.58300
O463        O  0.17156751  0.92272854  0.02515106    -0.56800
O464        O  0.19397624  0.86095529  0.04423548    -0.56700
O465        O  0.13592069  0.89282018  0.04205454    -0.55900
O466        O  0.19881714  0.01781382  0.94779775    -0.57100
C467        C  0.12590644  0.04966838  0.95643570     0.75500
O468        O  0.20237477  0.05494071  0.97127918    -0.58300
C469        C  0.22672470  0.01953559  0.94779656     0.75500
C470        C  0.19809345  0.11614703  0.95587250     0.77900
Cd471      Cd  0.18951527  0.05298358  0.95796725     1.37500
O472        O  0.14303755  0.04313915  0.95116014    -0.57100
O473        O  0.18092180  0.10113889  0.95183579    -0.55900
C474        C  0.19821557  0.02768851  0.97253080     0.77800
O475        O  0.21277427  0.10168555  0.96058582    -0.58300
O476        O  0.13836358  0.05693772  0.96241375    -0.56800
O477        O  0.23791391  0.03691175  0.95251697    -0.56700
O478        O  0.19048143  0.01216428  0.96704768    -0.55900
O479        O  0.21831485  0.54860070  0.02466548    -0.57100
C480        C  0.20586926  0.62109410  0.03757599     0.75500
O481        O  0.15224951  0.53365945  0.04247403    -0.58300
C482        C  0.20118290  0.52735478  0.02301689     0.75500
C483        C  0.23536227  0.52910564  0.04751200     0.77900
Cd484      Cd  0.19662294  0.55775933  0.03712550     1.37500
O485        O  0.20456348  0.60694558  0.03156442    -0.57100
O486        O  0.24360662  0.53467957  0.04098168    -0.55900
C487        C  0.13437966  0.55316019  0.04021922     0.77800
O488        O  0.20970881  0.53768034  0.04923969    -0.58300
O489        O  0.20506287  0.60575773  0.04340806    -0.56800
O490        O  0.18276579  0.51996978  0.02794452    -0.56700
O491        O  0.14554335  0.57469450  0.03672240    -0.55900
O492        O  0.20831303  0.40389427  0.97083700    -0.57100
C493        C  0.19686288  0.34053925  0.95541332     0.75500
O494        O  0.14300746  0.41556256  0.95148191    -0.58300
C495        C  0.19935274  0.42970150  0.97236119     0.75500
C496        C  0.22853974  0.43539297  0.94739782     0.77900
Cd497      Cd  0.19023746  0.40359512  0.95779644     1.37500
O498        O  0.21066877  0.35403952  0.96048010    -0.57100
O499        O  0.23822936  0.41438298  0.95132196    -0.55900
C500        C  0.12653275  0.40597192  0.95661917     0.77800
O501        O  0.20152078  0.44153173  0.94832475    -0.58300
O502        O  0.18100203  0.35642304  0.95126413    -0.56800
O503        O  0.18726701  0.44348940  0.96710085    -0.56700
O504        O  0.13959722  0.39556305  0.96220744    -0.55900
C505        C  0.84659316  0.06215592  0.40856453     0.87200
C506        C  0.84424901  0.09469145  0.41106421    -0.53100
C507        C  0.86241339  0.11356518  0.40732871     0.10100
C508        C  0.88282687  0.09817240  0.40172270     0.21100
C509        C  0.84230050  0.06335259  0.40018839    -0.53800
C510        C  0.86183527  0.08110165  0.39639732     0.10200
C511        C  0.87979185  0.05547497  0.40975122    -0.53300
C512        C  0.89891413  0.07434956  0.40626610     0.10800
H513        H  0.82948639  0.10246722  0.41536341     0.15300
H514        H  0.89856821  0.11376082  0.39915818     0.01000
H515        H  0.82439579  0.05131632  0.39756737     0.15600
H516        H  0.88763777  0.03811666  0.41334354     0.15400
C517        C  0.85258981  0.39013727  0.41327973     0.87200
C518        C  0.88606512  0.39573600  0.41308195    -0.53100
C519        C  0.90180424  0.37759958  0.40847817     0.10100
C520        C  0.88161816  0.35636261  0.40404833     0.21100
C521        C  0.84244774  0.39287626  0.40520418    -0.53800
C522        C  0.85826787  0.37625640  0.40038609     0.10200
C523        C  0.84914878  0.35647293  0.41471280    -0.53300
C524        C  0.86426698  0.33863308  0.40989586     0.10800
H525        H  0.89644930  0.41269944  0.41645204     0.15300
H526        H  0.89302259  0.34190369  0.40004766     0.01000
H527        H  0.82455160  0.40697807  0.40334824     0.15600
H528        H  0.83496143  0.34731970  0.41894447     0.15400
C529        C  0.17424815  0.06946987  0.41207462     0.87200
C530        C  0.18060711  0.06517510  0.40379064    -0.53100
C531        C  0.16254315  0.08058785  0.39910096     0.10100
C532        C  0.13960941  0.09962780  0.40321863     0.21100
C533        C  0.17545649  0.10348322  0.41318445    -0.53800
C534        C  0.15811850  0.11942205  0.40840591     0.10200
C535        C  0.14101338  0.06325064  0.41309631    -0.53300
C536        C  0.12309182  0.07833366  0.40843497     0.10800
H537        H  0.19874329  0.05153788  0.40185855     0.15300
H538        H  0.12457180  0.11167030  0.39945897     0.01000
H539        H  0.18749991  0.11466874  0.41750825     0.15600
H540        H  0.13212557  0.04889591  0.41737164     0.15400
C541        C  0.17837221  0.39565097  0.41051683     0.87200
C542        C  0.18553780  0.36244258  0.41094678    -0.53100
C543        C  0.16755975  0.34446937  0.40684267     0.10100
C544        C  0.14407907  0.36167245  0.40241954     0.21100
C545        C  0.17872542  0.40299832  0.40218057    -0.53800
C546        C  0.16156126  0.38480608  0.39792618     0.10200
C547        C  0.14501838  0.39796601  0.41229972    -0.53300
C548        C  0.12712359  0.38001028  0.40818149     0.10800
H549        H  0.20340074  0.35390021  0.41432668     0.15300
H550        H  0.12943543  0.34745221  0.39900755     0.01000
H551        H  0.18990556  0.42179032  0.39973246     0.15600
H552        H  0.13603614  0.41343234  0.41628474     0.15400
C553        C  0.19446789  0.07091001  0.33063786     0.87200
C554        C  0.20303966  0.10376936  0.33044381    -0.53100
C555        C  0.18471459  0.12223521  0.33428530     0.10100
C556        C  0.15976588  0.10535585  0.33840761     0.21100
C557        C  0.19310255  0.06312544  0.33893072    -0.53800
C558        C  0.17563832  0.08152772  0.34302594     0.10200
C559        C  0.16136256  0.06971392  0.32844517    -0.53300
C560        C  0.14315060  0.08780034  0.33241778     0.10800
H561        H  0.22236594  0.11156746  0.32745484     0.15300
H562        H  0.14486419  0.11953559  0.34172670     0.01000
H563        H  0.20398240  0.04430098  0.34142806     0.15600
H564        H  0.15275650  0.05487802  0.32426489     0.15400
C565        C  0.86885285  0.07762117  0.32709283     0.87200
C566        C  0.90276127  0.07307799  0.32731461    -0.53100
C567        C  0.91765438  0.09164981  0.33201948     0.10100
C568        C  0.89679821  0.11189024  0.33651171     0.21100
C569        C  0.86041866  0.07249529  0.33523904    -0.53800
C570        C  0.87439169  0.09061935  0.34011255     0.10200
C571        C  0.86520133  0.11102709  0.32570816    -0.53300
C572        C  0.87907168  0.12925909  0.33066312     0.10800
H573        H  0.91463250  0.05608750  0.32436761     0.15300
H574        H  0.90806550  0.12609796  0.34062538     0.01000
H575        H  0.84532310  0.05520895  0.33705719     0.15600
H576        H  0.85304798  0.11926566  0.32098390     0.15400
C577        C  0.84761598  0.40370460  0.33226207     0.87200
C578        C  0.84716942  0.37054879  0.33030006    -0.53100
C579        C  0.86734021  0.35392942  0.33398113     0.10100
C580        C  0.88602100  0.37154238  0.33955732     0.21100
C581        C  0.84245080  0.40247644  0.34069948    -0.53800
C582        C  0.86307583  0.38662385  0.34459650     0.10200
C583        C  0.88013697  0.41375699  0.33141698    -0.53300
C584        C  0.90031224  0.39689660  0.33513886     0.10800
H585        H  0.83135375  0.36069774  0.32650992     0.15300
H586        H  0.90271050  0.35784381  0.34240353     0.01000
H587        H  0.82314764  0.41084141  0.34349068     0.15600
H588        H  0.88639038  0.43296987  0.32817098     0.15400
C589        C  0.17573952  0.39649037  0.32887566     0.87200
C590        C  0.14193508  0.40039795  0.32805404    -0.53100
C591        C  0.12483051  0.38285751  0.33255354     0.10100
C592        C  0.14380960  0.36205244  0.33737389     0.21100
C593        C  0.18027426  0.40148619  0.33728841    -0.53800
C594        C  0.16380194  0.38321241  0.34176958     0.10200
C595        C  0.18120485  0.36366084  0.32767619    -0.53300
C596        C  0.16490264  0.34557788  0.33203523     0.10800
H597        H  0.13242749  0.41650301  0.32432423     0.15300
H598        H  0.13069721  0.34752146  0.34099960     0.01000
H599        H  0.19386660  0.41892194  0.33957563     0.15600
H600        H  0.19743863  0.35526718  0.32378142     0.15400
O601        O  0.14068463  0.92813356  0.21238015    -0.57100
C602        C  0.21586562  0.91546488  0.22199624     0.75500
O603        O  0.19780448  0.86124099  0.20092385    -0.58300
C604        C  0.12574677  0.92413176  0.20656409     0.75500
C605        C  0.22348215  0.94287982  0.19766066     0.77900
Cd606      Cd  0.18747875  0.90816733  0.20767735     1.37500
O607        O  0.20030566  0.93570526  0.21916810    -0.57100
O608        O  0.20047775  0.95321568  0.20065728    -0.55900
C609        C  0.18256503  0.84496385  0.20518308     0.77800
O610        O  0.22961757  0.91629861  0.19919468    -0.58300
O611        O  0.21832464  0.89217112  0.21819638    -0.56800
O612        O  0.13979842  0.91390925  0.20108918    -0.56700
O613        O  0.16909164  0.85820417  0.21032924    -0.55900
O614        O  0.39725951  0.92502922  0.28054550    -0.57100
C615        C  0.31641456  0.91422188  0.27197680     0.75500
O616        O  0.33147036  0.85822941  0.29086747    -0.58300
C617        C  0.41269862  0.91860390  0.28613360     0.75500
C618        C  0.32145898  0.94315831  0.29623711     0.77900
Cd619      Cd  0.34975316  0.90518826  0.28541938     1.37500
O620        O  0.34310981  0.92254020  0.27256778    -0.57100
O621        O  0.32524736  0.95103815  0.28960638    -0.55900
C622        C  0.34430942  0.84141022  0.28630766     0.77800
O623        O  0.33162134  0.91798277  0.29790255    -0.58300
O624        O  0.30510510  0.90252833  0.27766661    -0.56800
O625        O  0.39899124  0.90662202  0.29144049    -0.56700
O626        O  0.36009328  0.85409627  0.28148272    -0.55900
O627        O  0.64971238  0.93359995  0.28108864    -0.57100
C628        C  0.72553409  0.92248271  0.27048447     0.75500
O629        O  0.73725753  0.92354491  0.29393409    -0.58300
C630        C  0.63625946  0.92676134  0.28697349     0.75500
C631        C  0.69931990  0.84922644  0.28644071     0.77900
Cd632      Cd  0.69834409  0.91327453  0.28475649     1.37500
O633        O  0.69778818  0.92051526  0.27126828    -0.57100
O634        O  0.69159327  0.86174651  0.28052428    -0.55900
C635        C  0.73368443  0.95130905  0.29418162     0.77800
O636        O  0.70720759  0.86642951  0.29158592    -0.58300
O637        O  0.74053831  0.92101125  0.27635176    -0.56800
O638        O  0.65203829  0.91558859  0.29201109    -0.56700
O639        O  0.71311398  0.96157106  0.29019292    -0.55900
O640        O  0.83670023  0.93553699  0.21714943    -0.57100
C641        C  0.90257944  0.92659683  0.20410219     0.75500
O642        O  0.82288092  0.86701053  0.19882572    -0.58300
C643        C  0.81329670  0.92184038  0.21898170     0.75500
C644        C  0.80741715  0.95114098  0.19445116     0.77900
Cd645      Cd  0.83978839  0.91384761  0.20470309     1.37500
O646        O  0.88684832  0.93419864  0.20954125    -0.57100
O647        O  0.80532005  0.95397261  0.20136334    -0.55900
C648        C  0.83554827  0.85011789  0.20339768     0.77800
O649        O  0.82499852  0.93134670  0.19223840    -0.58300
O650        O  0.88892632  0.91476041  0.19878151    -0.56800
O651        O  0.80166543  0.90565359  0.21405932    -0.56700
O652        O  0.84975986  0.86284965  0.20848682    -0.55900
O653        O  0.32370789  0.52530160  0.27051081    -0.57100
C654        C  0.39371942  0.54424987  0.28430988     0.75500
O655        O  0.31545051  0.60062860  0.28838438    -0.58300
C656        C  0.30813630  0.54472179  0.26732884     0.75500
C657        C  0.29662620  0.51858226  0.29185779     0.77900
Cd658      Cd  0.33175762  0.55488564  0.28195742     1.37500
O659        O  0.38234962  0.54288974  0.27793331    -0.57100
O660        O  0.32276505  0.51174145  0.29006030    -0.55900
C661        C  0.33264859  0.61777017  0.28487062     0.77800
O662        O  0.28669249  0.54196404  0.28894164    -0.58300
O663        O  0.37614851  0.54905788  0.28960863    -0.56800
O664        O  0.30355823  0.56822658  0.27091341    -0.56700
O665        O  0.34908202  0.60575050  0.28010049    -0.55900
O666        O  0.17916371  0.53259786  0.21679066    -0.57100
C667        C  0.11020240  0.54294519  0.20492842     0.75500
O668        O  0.19434678  0.60413433  0.20015653    -0.58300
C669        C  0.20415053  0.54397689  0.21819717     0.75500
C670        C  0.20112093  0.51930476  0.19379531     0.77900
Cd671      Cd  0.17292944  0.55656428  0.20470585     1.37500
O672        O  0.12667882  0.53920129  0.21047710    -0.57100
O673        O  0.20090917  0.51325790  0.20059353    -0.55900
C674        C  0.17646375  0.62060011  0.20360523     0.77800
O675        O  0.18742139  0.54249207  0.19192135    -0.58300
O676        O  0.12302338  0.55157900  0.19909572    -0.56800
O677        O  0.21471797  0.56118639  0.21334081    -0.56700
O678        O  0.15751686  0.60750935  0.20757661    -0.55900
O679        O  0.62953890  0.54457486  0.28454101    -0.57100
C680        C  0.70482237  0.55462433  0.27445228     0.75500
O681        O  0.69319648  0.60898340  0.29477436    -0.58300
C682        C  0.61515742  0.55064690  0.29031708     0.75500
C683        C  0.71229282  0.52495044  0.29859390     0.77900
Cd684      Cd  0.67786348  0.56210074  0.28880151     1.37500
O685        O  0.71283383  0.57473797  0.27886765    -0.57100
O686        O  0.69598303  0.51395800  0.29363726    -0.55900
C687        C  0.68091261  0.62566595  0.29007380     0.77800
O688        O  0.71184849  0.55282589  0.29916150    -0.58300
O689        O  0.68511611  0.53708723  0.27681751    -0.56800
O690        O  0.62996990  0.56157165  0.29558048    -0.56700
O691        O  0.66659757  0.61282123  0.28499686    -0.55900
O692        O  0.79252160  0.55352069  0.19856983    -0.57100
C693        C  0.82399657  0.62737881  0.20713915     0.75500
O694        O  0.82106296  0.55179754  0.22241616    -0.58300
C695        C  0.79072032  0.52587435  0.19955191     0.75500
C696        C  0.88659638  0.55021608  0.20719541     0.77900
Cd697      Cd  0.82430683  0.56416167  0.20920852     1.37500
O698        O  0.81450655  0.60981568  0.20224796    -0.57100
O699        O  0.87132528  0.56252636  0.20223832    -0.55900
C700        C  0.79402080  0.55837725  0.22317557     0.77800
O701        O  0.87276114  0.54308590  0.21300445    -0.58300
O702        O  0.83335760  0.61572474  0.21303060    -0.56800
O703        O  0.80471756  0.51562378  0.20502524    -0.56700
O704        O  0.78096339  0.56748305  0.21744442    -0.55900
C705        C  0.33871523  0.39473756  0.16186029     0.87200
C706        C  0.37142154  0.39913836  0.16416876    -0.53100
C707        C  0.39156125  0.38307641  0.16021476     0.10100
C708        C  0.37696360  0.36397639  0.15420916     0.21100
C709        C  0.33955338  0.40248682  0.15357152    -0.53800
C710        C  0.35881231  0.38573458  0.14958059     0.10200
C711        C  0.33350940  0.36121369  0.16206474    -0.53300
C712        C  0.35372837  0.34467722  0.15823520     0.10800
H713        H  0.37828447  0.41451909  0.16840210     0.15300
H714        H  0.39331965  0.35181359  0.15085771     0.01000
H715        H  0.32618538  0.41944971  0.15098718     0.15600
H716        H  0.31486540  0.35151716  0.16498444     0.15400
C717        C  0.34513953  0.06947663  0.16226008     0.87200
C718        C  0.33582766  0.10225314  0.16237020    -0.53100
C719        C  0.35162169  0.11981858  0.15768760     0.10100
C720        C  0.37427513  0.10290362  0.15293341     0.21100
C721        C  0.34069515  0.06110448  0.15405376    -0.53800
C722        C  0.35617005  0.07829615  0.14919199     0.10200
C723        C  0.37867582  0.07011747  0.16346048    -0.53300
C724        C  0.39438630  0.08679239  0.15850481     0.10800
H725        H  0.31875871  0.11122292  0.16592872     0.15300
H726        H  0.38589007  0.11696601  0.14884890     0.01000
H727        H  0.32558304  0.04406945  0.15216219     0.15600
H728        H  0.38907288  0.05806339  0.16793933     0.15400
C729        C  0.66995291  0.07114616  0.16117624     0.87200
C730        C  0.67476321  0.10490863  0.16148795    -0.53100
C731        C  0.65740255  0.12145402  0.15685482     0.10100
C732        C  0.63789397  0.10180000  0.15187472     0.21100
C733        C  0.63600867  0.06674662  0.16199492    -0.53800
C734        C  0.61928699  0.08336979  0.15727051     0.10200
C735        C  0.67498961  0.06295036  0.15306861    -0.53300
C736        C  0.65909497  0.07926993  0.14820206     0.10800
H737        H  0.69095756  0.11472365  0.16516881     0.15300
H738        H  0.62379176  0.11401277  0.14798720     0.01000
H739        H  0.62532301  0.05064694  0.16550221     0.15600
H740        H  0.69027461  0.04588834  0.15127762     0.15400
C741        C  0.66697500  0.39631794  0.16496230     0.87200
C742        C  0.67017273  0.36211685  0.16541471    -0.53100
C743        C  0.65199777  0.34670508  0.16074522     0.10100
C744        C  0.63160426  0.36662717  0.15620730     0.21100
C745        C  0.67008952  0.40394182  0.15672176    -0.53800
C746        C  0.65303233  0.38742992  0.15197754     0.10200
C747        C  0.63405347  0.40057049  0.16665845    -0.53300
C748        C  0.61552221  0.38610427  0.16200760     0.10800
H749        H  0.68390777  0.35044680  0.16932455     0.15300
H750        H  0.61664168  0.35327286  0.15274677     0.01000
H751        H  0.68515737  0.42113831  0.15487672     0.15600
H752        H  0.62582677  0.41406705  0.17116779     0.15400
C753        C  0.67708243  0.07365079  0.07918625     0.87200
C754        C  0.68471152  0.10675028  0.07891013    -0.53100
C755        C  0.66901402  0.12391299  0.08368108     0.10100
C756        C  0.64679276  0.10635278  0.08842906     0.21100
C757        C  0.68039197  0.06469011  0.08739264    -0.53800
C758        C  0.66494946  0.08188735  0.09233564     0.10200
C759        C  0.64322208  0.07211067  0.07814111    -0.53300
C760        C  0.62731684  0.08931436  0.08287883     0.10800
H761        H  0.70107957  0.11592039  0.07515030     0.15300
H762        H  0.63416988  0.12091051  0.09219833     0.01000
H763        H  0.69293286  0.04537105  0.08903418     0.15600
H764        H  0.63201052  0.05671631  0.07453508     0.15400
C765        C  0.68861314  0.40038455  0.08317374     0.87200
C766        C  0.65580620  0.40813294  0.08237435    -0.53100
C767        C  0.63729418  0.39167057  0.08662929     0.10100
C768        C  0.65320513  0.36914571  0.09163983     0.21100
C769        C  0.69523716  0.40273200  0.09156727    -0.53800
C770        C  0.67624462  0.38708110  0.09597445     0.10200
C771        C  0.68977443  0.36649965  0.08189935    -0.53300
C772        C  0.67164992  0.34962977  0.08635863     0.10800
H773        H  0.64768893  0.42424371  0.07841788     0.15300
H774        H  0.63821038  0.35737878  0.09544938     0.01000
H775        H  0.71433886  0.41340881  0.09396448     0.15600
H776        H  0.70396386  0.35680973  0.07773560     0.15400
C777        C  0.35191413  0.07522412  0.08014972     0.87200
C778        C  0.38525386  0.06847371  0.07973899    -0.53100
C779        C  0.40238855  0.08381778  0.08462254     0.10100
C780        C  0.38459190  0.10519092  0.08954527     0.21100
C781        C  0.34334656  0.07094452  0.08830633    -0.53800
C782        C  0.36040613  0.08614852  0.09325855     0.10200
C783        C  0.35184249  0.10913893  0.07897733    -0.53300
C784        C  0.36796523  0.12491425  0.08401140     0.10800
H785        H  0.39481347  0.05380004  0.07564428     0.15300
H786        H  0.39848653  0.11765585  0.09352160     0.01000
H787        H  0.32496818  0.05694551  0.08999224     0.15600
H788        H  0.34264576  0.12041636  0.07427016     0.15400
C789        C  0.36247863  0.40010384  0.08064207     0.87200
C790        C  0.39571446  0.40623704  0.08016175    -0.53100
C791        C  0.41281345  0.38818976  0.08436570     0.10100
C792        C  0.39473114  0.36576915  0.08891425     0.21100
C793        C  0.35826670  0.36693312  0.07909294    -0.53800
C794        C  0.37532159  0.34905289  0.08330169     0.10200
C795        C  0.35494299  0.40162772  0.08895529    -0.53300
C796        C  0.37232907  0.38433098  0.09351547     0.10800
H797        H  0.40482575  0.42389862  0.07678123     0.15300
H798        H  0.40978019  0.35106401  0.09192222     0.01000
H799        H  0.34134452  0.35783433  0.07550311     0.15600
H800        H  0.33580664  0.41379791  0.09083148     0.15400
C801        C  0.34131908  0.20471126  0.08258786    -0.04800
C802        C  0.36794541  0.22088174  0.08320801     0.09400
C803        C  0.39474101  0.20560569  0.08436039    -0.02200
C804        C  0.39519895  0.17437725  0.08441173    -0.00400
C805        C  0.36842307  0.15809890  0.08397716    -0.04000
C806        C  0.34135815  0.17377610  0.08351694     0.03000
C807        C  0.36783906  0.25402742  0.08289839     0.09800
C808        C  0.42194346  0.22213275  0.08556038     0.35700
C809        C  0.31346222  0.15863251  0.08480298     0.39100
C810        C  0.35327111  0.27058941  0.08842180    -0.04400
C811        C  0.35347813  0.30172009  0.08811091     0.02800
C812        C  0.37200797  0.31641155  0.08301633    -0.04000
C813        C  0.38606619  0.30006734  0.07740722    -0.00200
C814        C  0.38290020  0.26903863  0.07716340    -0.02800
C815        C  0.33895222  0.25572574  0.09456614     0.36500
C816        C  0.40342118  0.31517103  0.07182303     0.40100
C817        C  0.33386642  0.31849775  0.09285990     0.39200
C818        C  0.39500239  0.25254581  0.07100165     0.36100
C819        C  0.31383707  0.21984686  0.08093782     0.36800
C820        C  0.42350686  0.15968229  0.08488630     0.40100
N821        N  0.31790942  0.33170244  0.09660647    -0.38000
N822        N  0.32770930  0.24384163  0.09948802    -0.39600
N823        N  0.41728795  0.32699490  0.06732984    -0.37300
N824        N  0.40453567  0.23938292  0.06607280    -0.39700
N825        N  0.44358337  0.23535303  0.08651332    -0.39500
N826        N  0.44681501  0.14937699  0.08533449    -0.37100
N827        N  0.29125825  0.14685777  0.08607974    -0.38200
N828        N  0.29195611  0.23190495  0.07958096    -0.39800
C829        C  0.55662500  0.41524711  0.08810563    -0.04800
C830        C  0.54217309  0.39130269  0.08459599     0.09400
C831        C  0.55928358  0.36921403  0.08111538    -0.02200
C832        C  0.59041556  0.37106323  0.08122313    -0.00400
C833        C  0.60464714  0.39264297  0.08560870    -0.04000
C834        C  0.58770786  0.41553884  0.08876017     0.03000
C835        C  0.50900207  0.38987771  0.08447006     0.09800
C836        C  0.54497240  0.34426938  0.07753794     0.35700
C837        C  0.60209010  0.44015814  0.09240276     0.39100
C838        C  0.49344828  0.39311961  0.07777634    -0.04400
C839        C  0.46225001  0.39174018  0.07768086     0.02800
C840        C  0.44605429  0.38953326  0.08438502    -0.04000
C841        C  0.46188997  0.38818903  0.09112202    -0.00200
C842        C  0.49304262  0.38674491  0.09111964    -0.02800
C843        C  0.50959993  0.39845577  0.07097544     0.36500
C844        C  0.44674859  0.39065191  0.09814428     0.40100
C845        C  0.44721330  0.39241646  0.07061648     0.39200
C846        C  0.50877337  0.38241684  0.09801839     0.36100
C847        C  0.53944773  0.43975453  0.09098934     0.36800
C848        C  0.60764421  0.35150978  0.07656398     0.40100
N849        N  0.43545857  0.39327798  0.06495188    -0.38000
N850        N  0.52254740  0.40268354  0.06556411    -0.39600
N851        N  0.43573145  0.39315950  0.10387078    -0.37300
N852        N  0.52129029  0.37907403  0.10352024    -0.39700
N853        N  0.53363110  0.32433624  0.07468133    -0.39500
N854        N  0.62103491  0.33585905  0.07277982    -0.37100
N855        N  0.61271707  0.46050910  0.09522835    -0.38200
N856        N  0.52565748  0.45922258  0.09328838    -0.39800
C857        C  0.48190070  0.08857850  0.07749303    -0.04800
C858        C  0.49825074  0.08363676  0.08399896     0.09400
C859        C  0.48315200  0.07788239  0.09067607    -0.02200
C860        C  0.45190986  0.07713427  0.09085044    -0.00400
C861        C  0.43545875  0.08287008  0.08438412    -0.04000
C862        C  0.45071004  0.08882564  0.07769876     0.03000
C863        C  0.53142021  0.08512132  0.08381684     0.09800
C864        C  0.49983174  0.07292829  0.09739353     0.35700
C865        C  0.43451495  0.09739763  0.07112994     0.39100
C866        C  0.54594372  0.11269234  0.08308626    -0.04400
C867        C  0.57713835  0.11417454  0.08277833     0.02800
C868        C  0.59419566  0.08802397  0.08318325    -0.04000
C869        C  0.57950059  0.06041310  0.08406559    -0.00200
C870        C  0.54831621  0.05901472  0.08431363    -0.02800
C871        C  0.52869086  0.13967593  0.08264043     0.36500
C872        C  0.59638828  0.03348744  0.08514313     0.40100
C873        C  0.59129240  0.14283051  0.08204246     0.39200
C874        C  0.53352163  0.03063348  0.08511064     0.36100
C875        C  0.49729740  0.09375424  0.07057996     0.36800
C876        C  0.43685065  0.07001126  0.09768853     0.40100
N877        N  0.60153683  0.16623446  0.08152351    -0.38000
N878        N  0.51505045  0.16124366  0.08222946    -0.39600
N879        N  0.60988513  0.01203692  0.08600025    -0.37300
N880        N  0.52167794  0.00803958  0.08578776    -0.39700
N881        N  0.51312978  0.06884660  0.10274734    -0.39500
N882        N  0.42522365  0.06423646  0.10319387    -0.37100
N883        N  0.42162487  0.10444145  0.06590702    -0.38200
N884        N  0.50965277  0.09791324  0.06508035    -0.39800
C885        C  0.66734481  0.20516411  0.07771495    -0.04800
C886        C  0.67307357  0.21973062  0.08443420     0.09400
C887        C  0.67900798  0.20297307  0.09082531    -0.02200
C888        C  0.67827433  0.17173661  0.09056454    -0.00400
C889        C  0.67174311  0.15696367  0.08387856    -0.04000
C890        C  0.66683755  0.17392513  0.07741032     0.03000
C891        C  0.67245709  0.25286331  0.08484471     0.09800
C892        C  0.68601634  0.21805637  0.09767353     0.35700
C893        C  0.65964756  0.15937766  0.07050424     0.39100
C894        C  0.64599051  0.26751730  0.08659521    -0.04400
C895        C  0.64551077  0.29863532  0.08745101     0.02800
C896        C  0.67162984  0.31590213  0.08620428    -0.04000
C897        C  0.69858642  0.30033504  0.08491104    -0.00200
C898        C  0.69867922  0.26929409  0.08400092    -0.02800
C899        C  0.61903579  0.25027944  0.08754671     0.36500
C900        C  0.72694144  0.31542309  0.08535063     0.40100
C901        C  0.61810458  0.31151981  0.09002773     0.39200
C902        C  0.72597652  0.25399706  0.08224984     0.36100
C903        C  0.66156691  0.22247876  0.07113749     0.36800
C904        C  0.68515813  0.15499369  0.09715994     0.40100
N905        N  0.59585894  0.32035731  0.09229231    -0.38000
N906        N  0.59751460  0.23662828  0.08827840    -0.39600
N907        N  0.74962119  0.32729008  0.08575636    -0.37300
N908        N  0.74764122  0.24170177  0.08080858    -0.39700
N909        N  0.69173315  0.23022531  0.10310710    -0.39500
N910        N  0.69086955  0.14214230  0.10248954    -0.37100
N911        N  0.65390292  0.14775191  0.06499917    -0.38200
N912        N  0.65697358  0.23641171  0.06590762    -0.39800
C913        C  0.64031084  0.38010203  0.13087740    -0.04800
C914        C  0.66881432  0.38545385  0.12808108     0.09400
C915        C  0.69232436  0.39050336  0.13297188    -0.02200
C916        C  0.68748391  0.39020790  0.14067757    -0.00400
C917        C  0.65826539  0.38668921  0.14365470    -0.04000
C918        C  0.63476668  0.38126032  0.13855221     0.03000
C919        C  0.67378421  0.38616691  0.11990750     0.09800
C920        C  0.72175338  0.39584047  0.13001750     0.35700
C921        C  0.60446116  0.37687913  0.14090542     0.39100
C922        C  0.67162921  0.41309952  0.11604422    -0.04400
C923        C  0.67405040  0.41363874  0.10827825     0.02800
C924        C  0.67771459  0.38698248  0.10425713    -0.04000
C925        C  0.68083967  0.36008863  0.10822228    -0.00200
C926        C  0.67918074  0.35981249  0.11600462    -0.02800
C927        C  0.66601091  0.44020783  0.12009669     0.36500
C928        C  0.68643655  0.33245348  0.10444860     0.40100
C929        C  0.67188878  0.44179746  0.10451589     0.39200
C930        C  0.68274230  0.33228091  0.12003528     0.36100
C931        C  0.61652709  0.37326351  0.12575524     0.36800
C932        C  0.71337458  0.39230397  0.14537901     0.40100
N933        N  0.67031468  0.46483965  0.10176643    -0.38000
N934        N  0.66138828  0.46170650  0.12336288    -0.39600
N935        N  0.69111651  0.30957207  0.10184859    -0.37300
N936        N  0.68569169  0.31033615  0.12324307    -0.39700
N937        N  0.74515529  0.40021129  0.12765025    -0.39500
N938        N  0.73431901  0.39438478  0.14901670    -0.37100
N939        N  0.57992602  0.37259369  0.14241840    -0.38200
N940        N  0.59777603  0.36760079  0.12164347    -0.39800
C941        C  0.69150130  0.06663759  0.11225581    -0.04800
C942        C  0.66562063  0.07168945  0.11635177     0.09400
C943        C  0.63911501  0.07810316  0.11265548    -0.02200
C944        C  0.63849465  0.08028921  0.10488123    -0.00400
C945        C  0.66485859  0.07678714  0.10062902    -0.04000
C946        C  0.69134490  0.06934900  0.10448781     0.03000
C947        C  0.66650298  0.07185446  0.12460973     0.09800
C948        C  0.61232933  0.08301480  0.11692617     0.35700
C949        C  0.71921944  0.06518064  0.10071424     0.39100
C950        C  0.67981692  0.09583061  0.12835919    -0.04400
C951        C  0.67954821  0.09674079  0.13611685     0.02800
C952        C  0.66308986  0.07563255  0.14012300    -0.04000
C953        C  0.65175039  0.05046719  0.13645381    -0.00200
C954        C  0.65369018  0.04846452  0.12870025    -0.02800
C955        C  0.69310141  0.11997054  0.12423099     0.36500
C956        C  0.63770603  0.02692249  0.14064659     0.40100
C957        C  0.69755209  0.11836992  0.13998081     0.39200
C958        C  0.64230986  0.02255541  0.12491570     0.36100
C959        C  0.71863259  0.05912290  0.11611402     0.36800
C960        C  0.61001994  0.08573536  0.10151682     0.40100
N961        N  0.71215032  0.13549213  0.14304433    -0.38000
N962        N  0.70352841  0.13928698  0.12092414    -0.39600
N963        N  0.62639901  0.00825479  0.14400707    -0.37300
N964        N  0.63331086  0.00185032  0.12189024    -0.39700
N965        N  0.59098937  0.08683622  0.12032250    -0.39500
N966        N  0.58641609  0.09056601  0.09938496    -0.37100
N967        N  0.74219336  0.06091691  0.09812325    -0.38200
N968        N  0.74023847  0.05329369  0.11920275    -0.39800
C969        C  0.65973040  0.20076852  0.16466945    -0.04800
C970        C  0.65755744  0.21809805  0.15826721     0.09400
C971        C  0.65361597  0.20433255  0.15139186    -0.02200
C972        C  0.65232331  0.17313692  0.15085137    -0.00400
C973        C  0.65600916  0.15505134  0.15725457    -0.04000
C974        C  0.65824297  0.16962003  0.16422703     0.03000
C975        C  0.65628751  0.25108669  0.15884837     0.09800
C976        C  0.65034943  0.22263031  0.14484628     0.35700
C977        C  0.65704388  0.15316454  0.17109755     0.39100
C978        C  0.68156928  0.26851110  0.15747251    -0.04400
C979        C  0.67993369  0.29966217  0.15792840     0.02800
C980        C  0.65304847  0.31367672  0.15990218    -0.04000
C981        C  0.62734425  0.29596843  0.16082674    -0.00200
C982        C  0.62915760  0.26485520  0.16044303    -0.02800
C983        C  0.70914711  0.25429305  0.15545760     0.36500
C984        C  0.59847878  0.30902718  0.16181465     0.40100
C985        C  0.70539134  0.31714159  0.15574272     0.39200
C986        C  0.60289179  0.24677562  0.16158499     0.36100
C987        C  0.66308206  0.21524262  0.17177337     0.36800
C988        C  0.64582052  0.16087409  0.14365777     0.40100
N989        N  0.72590340  0.33044729  0.15382280    -0.38000
N990        N  0.73110700  0.24293617  0.15382289    -0.39600
N991        N  0.57451693  0.31762947  0.16233814    -0.37300
N992        N  0.58204252  0.23228390  0.16250117    -0.39700
N993        N  0.64779825  0.23730458  0.13965333    -0.39500
N994        N  0.63969967  0.15252900  0.13781565    -0.37100
N995        N  0.65643001  0.14047554  0.17664238    -0.38200
N996        N  0.66577480  0.22682604  0.17742610    -0.39800
C997        C  0.35277103  0.05374386  0.11277727    -0.04800
C998        C  0.35209199  0.07948867  0.11712582     0.09400
C999        C  0.35278158  0.10744548  0.11370513    -0.02200
C1000       C  0.35499894  0.10975373  0.10594835    -0.00400
C1001       C  0.35625660  0.08391696  0.10149428    -0.04000
C1002       C  0.35445847  0.05582668  0.10501847     0.03000
C1003       C  0.35259801  0.07713365  0.12535987     0.09800
C1004       C  0.35162768  0.13392712  0.11823143     0.35700
C1005       C  0.35531892  0.02862980  0.10080782     0.39100
C1006       C  0.37982426  0.07377834  0.12902544    -0.04400
C1007       C  0.38077270  0.07238722  0.13678524     0.02800
C1008       C  0.35449183  0.07501773  0.14098219    -0.04000
C1009       C  0.32696038  0.07624191  0.13725314    -0.00200
C1010       C  0.32611050  0.07767976  0.12947002    -0.02800
C1011       C  0.40698036  0.07173085  0.12477241     0.36500
C1012       C  0.29942407  0.07599697  0.14136422     0.40100
C1013       C  0.40880191  0.06634642  0.14032888     0.39200
C1014       C  0.29800342  0.07996336  0.12566765     0.36100
C1015       C  0.35262278  0.02497235  0.11635323     0.36800
C1016       C  0.35536453  0.13902259  0.10269129     0.40100
N1017       N  0.43167812  0.06087102  0.14282143    -0.38000
N1018       N  0.42862055  0.07002320  0.12138476    -0.39600
N1019       N  0.27742326  0.07548441  0.14463725    -0.37300
N1020       N  0.27557032  0.08181688  0.12263447    -0.39700
N1021       N  0.35064424  0.15497569  0.12185922    -0.39500
N1022       N  0.35570741  0.16297213  0.10043273    -0.37100
N1023       N  0.35546764  0.00628408  0.09770178    -0.38200
N1024       N  0.35272337  0.00209797  0.11922898    -0.39800
C1025       C  0.53739492  0.08229917  0.15167866    -0.04800
C1026       C  0.52347850  0.08605796  0.15855090     0.09400
C1027       C  0.54058288  0.08972868  0.16494999    -0.02200
C1028       C  0.57172130  0.08989197  0.16447632    -0.00400
C1029       C  0.58609807  0.08454850  0.15763404    -0.04000
C1030       C  0.56850082  0.08131969  0.15119944     0.03000
C1031       C  0.49055536  0.08674963  0.15894587     0.09800
C1032       C  0.52599520  0.09362906  0.17201836     0.35700
C1033       C  0.58162143  0.07748398  0.14398643     0.39100
C1034       C  0.47466143  0.06028791  0.15991949    -0.04400
C1035       C  0.44355371  0.06027257  0.15955182     0.02800
C1036       C  0.42775376  0.08715202  0.15842191    -0.04000
C1037       C  0.44427274  0.11356607  0.15713923    -0.00200
C1038       C  0.47543964  0.11331540  0.15756914    -0.02800
C1039       C  0.49056147  0.03279309  0.16106644     0.36500
C1040       C  0.43028235  0.14099782  0.15497727     0.40100
C1041       C  0.42837040  0.03189859  0.15956881     0.39200
C1042       C  0.49227297  0.14040641  0.15643215     0.36100
C1043       C  0.51942583  0.07962616  0.14506751     0.36800
C1044       C  0.58852474  0.09800438  0.17096782     0.40100
N1045       N  0.41662246  0.00910150  0.15954077    -0.38000
N1046       N  0.50327091  0.01089940  0.16197101    -0.39600
N1047       N  0.42055805  0.16328319  0.15298885    -0.37300
N1048       N  0.50574118  0.16194335  0.15552877    -0.39700
N1049       N  0.51432868  0.09657304  0.17765453    -0.39500
N1050       N  0.60104980  0.10512546  0.17623820    -0.37100
N1051       N  0.59051162  0.07514935  0.13803399    -0.38200
N1052       N  0.50498165  0.07766250  0.13982254    -0.39800
C1053       C  0.33701585  0.37149616  0.12966571    -0.04800
C1054       C  0.36194964  0.38252913  0.12588678     0.09400
C1055       C  0.38575521  0.39498049  0.12985632    -0.02200
C1056       C  0.38451813  0.39669003  0.13760660    -0.00400
C1057       C  0.35950246  0.38581406  0.14140597    -0.04000
C1058       C  0.33591037  0.37280298  0.13741951     0.03000
C1059       C  0.36293825  0.38194868  0.11766644     0.09800
C1060       C  0.41154095  0.40593968  0.12592488     0.35700
C1061       C  0.31184649  0.35821316  0.14129450     0.39100
C1062       C  0.35462982  0.40710937  0.11370100    -0.04400
C1063       C  0.35818276  0.40819613  0.10597546     0.02800
C1064       C  0.36880172  0.38306698  0.10192981    -0.04000
C1065       C  0.37644259  0.35724710  0.10616089    -0.00200
C1066       C  0.37353618  0.35702355  0.11393046    -0.02800
C1067       C  0.34253037  0.43228343  0.11768725     0.36500
C1068       C  0.38798477  0.33041837  0.10289733     0.40100
C1069       C  0.35175361  0.43636715  0.10255628     0.39200
C1070       C  0.38169919  0.33097327  0.11817578     0.36100
C1071       C  0.31276102  0.35838470  0.12555779     0.36800
C1072       C  0.40902898  0.40960710  0.14164113     0.40100
N1073       N  0.34539430  0.45949202  0.10034366    -0.38000
N1074       N  0.33280790  0.45218522  0.12088053    -0.39600
N1075       N  0.39788539  0.30849452  0.10071033    -0.37300
N1076       N  0.38815409  0.31019579  0.12153721    -0.39700
N1077       N  0.43203490  0.41461867  0.12274971    -0.39500
N1078       N  0.42882312  0.41999505  0.14475869    -0.37100
N1079       N  0.29299413  0.34576089  0.14432142    -0.38200
N1080       N  0.29345518  0.34791391  0.12226767    -0.39800
C1081       C  0.34316341  0.26468963  0.16484776    -0.04800
C1082       C  0.35045008  0.24828048  0.15850561     0.09400
C1083       C  0.35963351  0.26325134  0.15207361    -0.02200
C1084       C  0.35981581  0.29448345  0.15182360    -0.00400
C1085       C  0.35321921  0.31127310  0.15825904    -0.04000
C1086       C  0.34648819  0.29570457  0.16488233     0.03000
C1087       C  0.34937508  0.21512978  0.15863665     0.09800
C1088       C  0.36933865  0.24634956  0.14569783     0.35700
C1089       C  0.34511302  0.31096513  0.17191637     0.39100
C1090       C  0.32912838  0.19970130  0.15410642    -0.04400
C1091       C  0.33042377  0.16859492  0.15358608     0.02800
C1092       C  0.35006704  0.15259022  0.15810323    -0.04000
C1093       C  0.36815367  0.16788894  0.16319286    -0.00200
C1094       C  0.36912703  0.19904757  0.16313559    -0.02800
C1095       C  0.30684025  0.21590755  0.15001821     0.36500
C1096       C  0.38641390  0.15162971  0.16837042     0.40100
C1097       C  0.31156083  0.15334469  0.14837096     0.39200
C1098       C  0.39117170  0.21449613  0.16751169     0.36100
C1099       C  0.33210344  0.24958740  0.17136711     0.36800
C1100       C  0.36743136  0.30841533  0.14488249     0.40100
N1101       N  0.29626192  0.14208104  0.14409564    -0.38000
N1102       N  0.28900525  0.22890530  0.14679849    -0.39600
N1103       N  0.40112637  0.13882633  0.17249560    -0.37300
N1104       N  0.40881230  0.22684126  0.17097625    -0.39700
N1105       N  0.37707245  0.23288909  0.14062372    -0.39500
N1106       N  0.37435987  0.31810877  0.13922861    -0.37100
N1107       N  0.34418015  0.32283650  0.17756617    -0.38200
N1108       N  0.32319854  0.23750708  0.17654765    -0.39800
C1109       C  0.46968744  0.41459479  0.16355033    -0.04800
C1110       C  0.48733478  0.38921470  0.16261113     0.09400
C1111       C  0.47365783  0.36178303  0.16114280    -0.02200
C1112       C  0.44255066  0.35945622  0.16087961    -0.00400
C1113       C  0.42461857  0.38518976  0.16129737    -0.04000
C1114       C  0.43876038  0.41298730  0.16250433     0.03000
C1115       C  0.52043366  0.39132028  0.16294976     0.09800
C1116       C  0.49173081  0.33582705  0.15977286     0.35700
C1117       C  0.42220669  0.44042159  0.16221069     0.39100
C1118       C  0.53611200  0.37796914  0.16881113    -0.04400
C1119       C  0.56732177  0.37720415  0.16867940     0.02800
C1120       C  0.58289934  0.38951322  0.16264665    -0.04000
C1121       C  0.56744495  0.40645111  0.15740287    -0.00200
C1122       C  0.53628227  0.40607164  0.15730733    -0.02800
C1123       C  0.52007670  0.36431890  0.17486391     0.36500
C1124       C  0.58360718  0.42592842  0.15246325     0.40100
C1125       C  0.58335530  0.36319399  0.17466269     0.39200
C1126       C  0.52059324  0.41999922  0.15126580     0.36100
C1127       C  0.48348389  0.44250362  0.16556495     0.36800
C1128       C  0.42965047  0.33009881  0.16042583     0.40100
N1129       N  0.59616819  0.35198761  0.17942351    -0.38000
N1130       N  0.50721877  0.35324813  0.17965650    -0.39600
N1131       N  0.59652528  0.44179143  0.14860488    -0.37300
N1132       N  0.50801205  0.43097901  0.14643491    -0.39700
N1133       N  0.50603182  0.31511645  0.15864523    -0.39500
N1134       N  0.42060485  0.30615469  0.16006804    -0.37100
N1135       N  0.40918083  0.46241450  0.16195738    -0.38200
N1136       N  0.49451389  0.46470174  0.16720344    -0.39800
C1137       C  0.73807598  0.46585728  0.19253817    -0.04800
C1138       C  0.73870424  0.47113211  0.18486874     0.09400
C1139       C  0.75662973  0.49408895  0.18202093    -0.02200
C1140       C  0.77376538  0.51176397  0.18680467    -0.00400
C1141       C  0.77310838  0.50667148  0.19451136    -0.04000
C1142       C  0.75515479  0.48355746  0.19735225     0.03000
C1143       C  0.72093501  0.45214661  0.17972702     0.09800
C1144       C  0.75758564  0.49936201  0.17412661     0.35700
C1145       C  0.75332598  0.47855259  0.20524611     0.39100
C1146       C  0.69550897  0.46350640  0.17629404    -0.04400
C1147       C  0.67977354  0.44628326  0.17111527     0.02800
C1148       C  0.68750328  0.41607843  0.16980501    -0.04000
C1149       C  0.71513361  0.40619568  0.17270578    -0.00200
C1150       C  0.73104631  0.42377555  0.17780247    -0.02800
C1151       C  0.68555580  0.49315799  0.17810336     0.36500
C1152       C  0.72978769  0.38008325  0.16990147     0.40100
C1153       C  0.65667461  0.46063143  0.16686377     0.39200
C1154       C  0.75852877  0.41300161  0.18095550     0.36100
C1155       C  0.71961104  0.44228506  0.19546661     0.36800
C1156       C  0.79282600  0.53456571  0.18372478     0.40100
N1157       N  0.63835016  0.47219498  0.16347628    -0.38000
N1158       N  0.67768508  0.51679030  0.17956609    -0.39600
N1159       N  0.74251249  0.35952432  0.16782395    -0.37300
N1160       N  0.78037771  0.40447294  0.18349685    -0.39700
N1161       N  0.75817707  0.50363179  0.16783407    -0.39500
N1162       N  0.80803632  0.55271380  0.18125915    -0.37100
N1163       N  0.75179132  0.47455182  0.21154136    -0.38200
N1164       N  0.70494186  0.42339485  0.19778333    -0.39800
C1165       C  0.75800883  0.56130268  0.25815548    -0.04800
C1166       C  0.74003980  0.55175213  0.25226185     0.09400
C1167       C  0.71092982  0.54197088  0.25365842    -0.02200
C1168       C  0.69941940  0.54265996  0.26089535    -0.00400
C1169       C  0.71735358  0.55235579  0.26685275    -0.04000
C1170       C  0.74695779  0.56116129  0.26542981     0.03000
C1171       C  0.75199241  0.55220857  0.24456558     0.09800
C1172       C  0.69279704  0.53127288  0.24761494     0.35700
C1173       C  0.76651159  0.56938427  0.27144059     0.39100
C1174       C  0.77174527  0.53003858  0.24222972    -0.04400
C1175       C  0.78526184  0.53187871  0.23523052     0.02800
C1176       C  0.77858279  0.55566852  0.23042166    -0.04000
C1177       C  0.75744134  0.57702132  0.23264754    -0.00200
C1178       C  0.74456009  0.57547240  0.23973243    -0.02800
C1179       C  0.77805367  0.50524869  0.24706214     0.36500
C1180       C  0.74925497  0.60107926  0.22776444     0.40100
C1181       C  0.80546977  0.50874379  0.23293827     0.39200
C1182       C  0.72402177  0.59815921  0.24212838     0.36100
C1183       C  0.78791715  0.57156389  0.25669409     0.36800
C1184       C  0.66869287  0.53452158  0.26209585     0.40100
N1185       N  0.82160542  0.49029604  0.23111591    -0.38000
N1186       N  0.78293619  0.48547007  0.25092647    -0.39600
N1187       N  0.74230979  0.62016282  0.22388044    -0.37300
N1188       N  0.70762132  0.61620717  0.24404971    -0.39700
N1189       N  0.67835531  0.52267918  0.24279748    -0.39500
N1190       N  0.64415988  0.52810892  0.26303930    -0.37100
N1191       N  0.78221068  0.57584811  0.27622041    -0.38200
N1192       N  0.81173456  0.57974324  0.25549438    -0.39800
C1193       C  0.25237162  0.49548876  0.17815714    -0.04800
C1194       C  0.25378102  0.46468132  0.17935608     0.09400
C1195       C  0.23602991  0.45155356  0.18486654    -0.02200
C1196       C  0.21787467  0.46926399  0.18937647    -0.00400
C1197       C  0.21734131  0.50038509  0.18842109    -0.04000
C1198       C  0.23414890  0.51332351  0.18264806     0.03000
C1199       C  0.27471556  0.44602185  0.17497671     0.09800
C1200       C  0.23692824  0.41974750  0.18597409     0.35700
C1201       C  0.23398917  0.54512669  0.18152831     0.39100
C1202       C  0.30103633  0.43585467  0.17821646    -0.04400
C1203       C  0.32020725  0.41711540  0.17424857     0.02800
C1204       C  0.31537748  0.41143954  0.16659154    -0.04000
C1205       C  0.28693809  0.41893214  0.16371250    -0.00200
C1206       C  0.26713744  0.43653348  0.16784475    -0.02800
C1207       C  0.30809360  0.44429505  0.18574307     0.36500
C1208       C  0.27634141  0.40693903  0.15679093     0.40100
C1209       C  0.34274332  0.40149994  0.17838907     0.39200
C1210       C  0.23837375  0.44424131  0.16485217     0.36100
C1211       C  0.27050395  0.50891482  0.17244820     0.36800
C1212       C  0.19948488  0.45523982  0.19494769     0.40100
N1213       N  0.36060490  0.38923780  0.18177803    -0.38000
N1214       N  0.31361879  0.45107912  0.19174131    -0.39600
N1215       N  0.26688741  0.39799239  0.15129714    -0.37300
N1216       N  0.21539206  0.45027830  0.16249093    -0.39700
N1217       N  0.23784049  0.39440076  0.18686811    -0.39500
N1218       N  0.18483727  0.44402792  0.19938940    -0.37100
N1219       N  0.23388670  0.57049058  0.18062198    -0.38200
N1220       N  0.28500001  0.51958376  0.16789499    -0.39800
C1221       C  0.96400285  0.51694343  0.20913572    -0.04800
C1222       C  0.98154661  0.53844212  0.20554201     0.09400
C1223       C  0.96787182  0.56305261  0.20221178    -0.02200
C1224       C  0.93692627  0.56672347  0.20266719    -0.00400
C1225       C  0.91914309  0.54534913  0.20633503    -0.04000
C1226       C  0.93291644  0.52010681  0.20944002     0.03000
C1227       C  0.01465720  0.53640920  0.20564023     0.09800
C1228       C  0.98590972  0.58517256  0.19850468     0.35700
C1229       C  0.91517171  0.49697940  0.21282593     0.39100
C1230       C  0.03024423  0.52612547  0.19940656    -0.04400
C1231       C  0.06150173  0.52719098  0.19925027     0.02800
C1232       C  0.07744337  0.53870378  0.20533742    -0.04000
C1233       C  0.06167028  0.54770093  0.21171828    -0.00200
C1234       C  0.03047176  0.54662596  0.21184028    -0.02800
C1235       C  0.01399013  0.51478098  0.19311568     0.36500
C1236       C  0.07725378  0.55945643  0.21807644     0.40100
C1237       C  0.07718940  0.51581589  0.19287416     0.39200
C1238       C  0.01446800  0.55697372  0.21828126     0.36100
C1239       C  0.97809694  0.49184493  0.21265269     0.36800
C1240       C  0.92383258  0.59348570  0.19970198     0.40100
N1241       N  0.08971335  0.50663086  0.18780031    -0.38000
N1242       N  0.00099265  0.50575092  0.18809670    -0.39600
N1243       N  0.08958819  0.56880774  0.22316315    -0.37300
N1244       N  0.00166097  0.56520183  0.22341187    -0.39700
N1245       N  0.00034574  0.60273992  0.19554189    -0.39500
N1246       N  0.91356078  0.61495602  0.19736331    -0.37100
N1247       N  0.90102989  0.47844597  0.21549913    -0.38200
N1248       N  0.98938191  0.47195072  0.21550815    -0.39800
C1249       C  0.46808784  0.52418943  0.29287102    -0.04800
C1250       C  0.48769318  0.54029286  0.28832677     0.09400
C1251       C  0.47664866  0.55648945  0.28228663    -0.02200
C1252       C  0.44603382  0.55713878  0.28086247    -0.00400
C1253       C  0.42613573  0.54160436  0.28550667    -0.04000
C1254       C  0.43734658  0.52496441  0.29150118     0.03000
C1255       C  0.52019802  0.54048468  0.28981763     0.09800
C1256       C  0.49696396  0.57276653  0.27757274     0.35700
C1257       C  0.41737148  0.50816053  0.29618403     0.39100
C1258       C  0.53841794  0.51886117  0.28657931    -0.04400
C1259       C  0.56945102  0.52132146  0.28707958     0.02800
C1260       C  0.58254770  0.54584639  0.29072229    -0.04000
C1261       C  0.56407476  0.56687449  0.29423342    -0.00200
C1262       C  0.53301415  0.56402738  0.29381100    -0.02800
C1263       C  0.52511942  0.49469884  0.28246778     0.36500
C1264       C  0.57674399  0.59260171  0.29785299     0.40100
C1265       C  0.58778659  0.49854274  0.28379282     0.39200
C1266       C  0.51409403  0.58604528  0.29721123     0.36100
C1267       C  0.47964435  0.50680337  0.29893757     0.36800
C1268       C  0.43506780  0.57497609  0.27479964     0.40100
N1269       N  0.60234484  0.48036515  0.28115422    -0.38000
N1270       N  0.51443412  0.47553634  0.27916514    -0.39600
N1271       N  0.58672884  0.61323047  0.30071813    -0.37300
N1272       N  0.49894652  0.60359666  0.29990528    -0.39700
N1273       N  0.51329376  0.58570324  0.27384288    -0.39500
N1274       N  0.42639621  0.58925660  0.26996710    -0.37100
N1275       N  0.40142816  0.49477060  0.29992099    -0.38200
N1276       N  0.48890053  0.49282924  0.30375744    -0.39800
C1277       C  0.28227264  0.56134006  0.24779128    -0.04800
C1278       C  0.26752019  0.53481732  0.24590787     0.09400
C1279       C  0.26764912  0.51078119  0.25088905    -0.02200
C1280       C  0.28162173  0.51360316  0.25782372    -0.00400
C1281       C  0.29563679  0.54051373  0.25980727    -0.04000
C1282       C  0.29641871  0.56413291  0.25467744     0.03000
C1283       C  0.25093835  0.53298961  0.23876915     0.09800
C1284       C  0.25293812  0.48332134  0.24891560     0.35700
C1285       C  0.31230094  0.59124465  0.25639839     0.39100
C1286       C  0.26645070  0.53163281  0.23201916    -0.04400
C1287       C  0.25113466  0.53440845  0.22527862     0.02800
C1288       C  0.22002477  0.53802188  0.22523445    -0.04000
C1289       C  0.20433450  0.53723952  0.23199872    -0.00200
C1290       C  0.21980113  0.53525561  0.23873378    -0.02800
C1291       C  0.29835891  0.52819498  0.23204002     0.36500
C1292       C  0.17234299  0.53985160  0.23210456     0.40100
C1293       C  0.26749230  0.53316679  0.21839420     0.39200
C1294       C  0.20375721  0.53696712  0.24565739     0.36100
C1295       C  0.28246434  0.58601810  0.24265726     0.36800
C1296       C  0.28036148  0.48923033  0.26302789     0.40100
N1297       N  0.28060818  0.53216835  0.21291393    -0.38000
N1298       N  0.32382468  0.52561661  0.23207613    -0.39600
N1299       N  0.14681694  0.54175688  0.23221023    -0.37300
N1300       N  0.19096739  0.53838642  0.25117813    -0.39700
N1301       N  0.24108221  0.46145664  0.24735657    -0.39500
N1302       N  0.27934409  0.46981157  0.26718798    -0.37100
N1303       N  0.32500622  0.61286664  0.25774094    -0.38200
N1304       N  0.28265972  0.60553535  0.23852046    -0.39800
C1305       C  0.76606180  0.01711992  0.18632064    -0.04800
C1306       C  0.75372881  0.00463430  0.17989336     0.09400
C1307       C  0.76019029  0.97509497  0.17801246    -0.02200
C1308       C  0.77817001  0.95770662  0.18266675    -0.00400
C1309       C  0.78990924  0.96986233  0.18926448    -0.04000
C1310       C  0.78402914  0.99987601  0.19099495     0.03000
C1311       C  0.73257601  0.02221526  0.17530803     0.09800
C1312       C  0.74776575  0.96249089  0.17133357     0.35700
C1313       C  0.79681790  0.01336829  0.19752309     0.39100
C1314       C  0.74261820  0.03825529  0.16916014    -0.04400
C1315       C  0.72254214  0.05471005  0.16483894     0.02800
C1316       C  0.69154763  0.05486000  0.16650644    -0.04000
C1317       C  0.68260495  0.04125819  0.17328304    -0.00200
C1318       C  0.70272633  0.02404115  0.17740954    -0.02800
C1319       C  0.77391581  0.03810914  0.16735507     0.36500
C1320       C  0.65433583  0.04709237  0.17671662     0.40100
C1321       C  0.73448445  0.07230544  0.15881527     0.39200
C1322       C  0.69288658  0.00860002  0.18401470     0.36100
C1323       C  0.76003155  0.04779641  0.18813250     0.36800
C1324       C  0.78331424  0.92693303  0.18078685     0.40100
N1325       N  0.74414990  0.08623078  0.15401868    -0.38000
N1326       N  0.79889212  0.03804443  0.16594389    -0.39600
N1327       N  0.63222504  0.05084791  0.17979476    -0.37300
N1328       N  0.68510873  0.99633717  0.18928007    -0.39700
N1329       N  0.73784480  0.95256666  0.16599315    -0.39500
N1330       N  0.78732448  0.90239028  0.17926454    -0.37100
N1331       N  0.80698696  0.02412102  0.20273449    -0.38200
N1332       N  0.75520333  0.07227487  0.18956003    -0.39800
C1333       C  0.80624262  0.77165833  0.20016290    -0.04800
C1334       C  0.82960626  0.75461327  0.20301959     0.09400
C1335       C  0.85560535  0.76860352  0.20551094    -0.02200
C1336       C  0.85797037  0.79968895  0.20538028    -0.00400
C1337       C  0.83389428  0.81717412  0.20291387    -0.04000
C1338       C  0.80807637  0.80286113  0.20022188     0.03000
C1339       C  0.82638934  0.72189758  0.20384183     0.09800
C1340       C  0.87986255  0.75080810  0.20828480     0.35700
C1341       C  0.78266965  0.81998128  0.19787693     0.39100
C1342       C  0.83626009  0.70277811  0.19822736    -0.04400
C1343       C  0.83486432  0.67185323  0.19923619     0.02800
C1344       C  0.82443355  0.65991910  0.20598286    -0.04000
C1345       C  0.81499501  0.67926586  0.21164719    -0.00200
C1346       C  0.81540990  0.71011587  0.21050804    -0.02800
C1347       C  0.84876294  0.71505598  0.19151578     0.36500
C1348       C  0.80502601  0.66765774  0.21868670     0.40100
C1349       C  0.84564384  0.65244472  0.19345969     0.39200
C1350       C  0.80497904  0.72992579  0.21624408     0.36100
C1351       C  0.78021845  0.75694871  0.19722500     0.36800
C1352       C  0.88549474  0.81340898  0.20771579     0.40100
N1353       N  0.85424566  0.63696959  0.18885182    -0.38000
N1354       N  0.85895092  0.72491315  0.18619242    -0.39600
N1355       N  0.79746814  0.65871763  0.22436805    -0.37300
N1356       N  0.79661348  0.74580650  0.22079238    -0.39700
N1357       N  0.89909277  0.73647136  0.21049029    -0.39500
N1358       N  0.90749930  0.82418641  0.20959469    -0.37100
N1359       N  0.76227583  0.83353798  0.19604230    -0.38200
N1360       N  0.75960274  0.74514033  0.19482611    -0.39800
C1361       C  0.66241153  0.70760890  0.28801087    -0.04800
C1362       C  0.69002942  0.72094702  0.28948307     0.09400
C1363       C  0.71409938  0.70326403  0.29167467    -0.02200
C1364       C  0.71085596  0.67223572  0.29219945    -0.00400
C1365       C  0.68358982  0.65856667  0.29032944    -0.04000
C1366       C  0.65925716  0.67654640  0.28832583     0.03000
C1367       C  0.69369793  0.75377705  0.28875652     0.09800
C1368       C  0.74231866  0.71713966  0.29332631     0.35700
C1369       C  0.63069496  0.66323133  0.28672920     0.39100
C1370       C  0.69034618  0.77212726  0.29497416    -0.04400
C1371       C  0.69276935  0.80316735  0.29427643     0.02800
C1372       C  0.69857819  0.81624089  0.28729714    -0.04000
C1373       C  0.70287478  0.79749037  0.28109998    -0.00200
C1374       C  0.70050100  0.76644752  0.28185287    -0.02800
C1375       C  0.68436759  0.75887997  0.30211527     0.36500
C1376       C  0.71059912  0.80983411  0.27395544     0.40100
C1377       C  0.68844880  0.82143163  0.30076473     0.39200
C1378       C  0.70552957  0.74736482  0.27553873     0.36100
C1379       C  0.63710197  0.72599201  0.28627528     0.36800
C1380       C  0.73599175  0.65450214  0.29444353     0.40100
N1381       N  0.68510719  0.83589575  0.30596489    -0.38000
N1382       N  0.67974979  0.74819059  0.30780409    -0.39600
N1383       N  0.71677696  0.81957746  0.26824942    -0.37300
N1384       N  0.70971927  0.73212392  0.27051806    -0.39700
N1385       N  0.76476925  0.72833694  0.29464040    -0.39500
N1386       N  0.75605434  0.64046427  0.29627979    -0.37100
N1387       N  0.60796469  0.65256525  0.28543403    -0.38200
N1388       N  0.61684159  0.74066065  0.28495811    -0.39800
C1389       C  0.79106269  0.95175423  0.23794133    -0.04800
C1390       C  0.77697785  0.92682231  0.24105811     0.09400
C1391       C  0.77492972  0.90033435  0.23697782    -0.02200
C1392       C  0.78686976  0.89870581  0.22980597    -0.00400
C1393       C  0.80053604  0.92386821  0.22656431    -0.04000
C1394       C  0.80260953  0.95043497  0.23070634     0.03000
C1395       C  0.76483197  0.92800522  0.24873552     0.09800
C1396       C  0.76086130  0.87450343  0.24023300     0.35700
C1397       C  0.81613329  0.97668967  0.22753348     0.39100
C1398       C  0.73717033  0.94122778  0.25011652    -0.04400
C1399       C  0.72477897  0.94039922  0.25726356     0.02800
C1400       C  0.73969290  0.92562907  0.26307245    -0.04000
C1401       C  0.76786831  0.91301713  0.26167159    -0.00200
C1402       C  0.78049184  0.91467599  0.25456676    -0.02800
C1403       C  0.72131368  0.95545233  0.24413955     0.36500
C1404       C  0.78352157  0.89702870  0.26740279     0.40100
C1405       C  0.69690970  0.95531665  0.25861857     0.39200
C1406       C  0.80962360  0.90239346  0.25320505     0.36100
C1407       C  0.79404426  0.97863207  0.24225872     0.36800
C1408       C  0.78622995  0.87055237  0.22594234     0.40100
N1409       N  0.67471493  0.96727350  0.25969832    -0.38000
N1410       N  0.70869892  0.96686851  0.23937725    -0.39600
N1411       N  0.79604015  0.88418151  0.27195066    -0.37300
N1412       N  0.83288022  0.89270764  0.25210145    -0.39700
N1413       N  0.74977769  0.85387810  0.24284549    -0.39500
N1414       N  0.78582988  0.84808827  0.22287363    -0.37100
N1415       N  0.82693266  0.99769410  0.22503446    -0.38200
N1416       N  0.79642704  0.99998319  0.24573634    -0.39800
C1417       C  0.33773887  0.76216714  0.29353231    -0.04800
C1418       C  0.33596839  0.74601507  0.28690107     0.09400
C1419       C  0.33589635  0.76110593  0.28009397    -0.02200
C1420       C  0.33849815  0.79222021  0.27989466    -0.00400
C1421       C  0.34092430  0.80857668  0.28653993    -0.04000
C1422       C  0.34014341  0.79332916  0.29337189     0.03000
C1423       C  0.33515750  0.71291702  0.28703782     0.09800
C1424       C  0.33296806  0.74448565  0.27328322     0.35700
C1425       C  0.34293181  0.80943559  0.30025748     0.39100
C1426       C  0.30796581  0.69772913  0.28764886    -0.04400
C1427       C  0.30705004  0.66655272  0.28712806     0.02800
C1428       C  0.33352420  0.65033630  0.28613661    -0.04000
C1429       C  0.36093611  0.66563825  0.28598920    -0.00200
C1430       C  0.36166603  0.69680756  0.28634917    -0.02800
C1431       C  0.28090938  0.71433515  0.28873920     0.36500
C1432       C  0.38854835  0.64935681  0.28567338     0.40100
C1433       C  0.27868239  0.65144476  0.28727669     0.39200
C1434       C  0.38972439  0.71245289  0.28597886     0.36100
C1435       C  0.33734954  0.74654359  0.30052241     0.36800
C1436       C  0.33794350  0.80730476  0.27282409     0.40100
N1437       N  0.25602474  0.63943065  0.28738118    -0.38000
N1438       N  0.25939576  0.72765107  0.28966244    -0.39600
N1439       N  0.41057993  0.63639438  0.28547129    -0.37300
N1440       N  0.41205894  0.72500705  0.28568273    -0.39700
N1441       N  0.33051688  0.73121011  0.26785882    -0.39500
N1442       N  0.33755485  0.81928060  0.26717984    -0.37100
N1443       N  0.34514957  0.82220422  0.30576347    -0.38200
N1444       N  0.33696364  0.73397658  0.30608488    -0.39800
C1445       C  0.49436371  0.92069114  0.28071510    -0.04800
C1446       C  0.50756088  0.93199098  0.28718411     0.09400
C1447       C  0.48949494  0.94028696  0.29318241    -0.02200
C1448       C  0.45853279  0.93596993  0.29285751    -0.00400
C1449       C  0.44524110  0.92426452  0.28640963    -0.04000
C1450       C  0.46336281  0.91710112  0.28029183     0.03000
C1451       C  0.54066002  0.93282423  0.28784130     0.09800
C1452       C  0.50287531  0.95326971  0.29969392     0.35700
C1453       C  0.45041061  0.90445110  0.27368106     0.39100
C1454       C  0.55731139  0.95527526  0.28434402    -0.04400
C1455       C  0.58856996  0.95405262  0.28430044     0.02800
C1456       C  0.60349678  0.93023942  0.28775787    -0.04000
C1457       C  0.58662538  0.90838953  0.29151829    -0.00200
C1458       C  0.55542791  0.90975966  0.29155327    -0.02800
C1459       C  0.54215335  0.97937799  0.28067427     0.36500
C1460       C  0.60106008  0.88333117  0.29498647     0.40100
C1461       C  0.60526878  0.97748045  0.28071597     0.39200
C1462       C  0.53833642  0.88669002  0.29517581     0.36100
C1463       C  0.51290747  0.91190064  0.27456066     0.36800
C1464       C  0.44039885  0.94377253  0.29916607     0.40100
N1465       N  0.61859030  0.99615887  0.27785084    -0.38000
N1466       N  0.53004318  0.99857079  0.27773297    -0.39600
N1467       N  0.61253486  0.86329984  0.29773663    -0.37300
N1468       N  0.52463069  0.86834512  0.29805963    -0.39700
N1469       N  0.51353274  0.96378680  0.30487345    -0.39500
N1470       N  0.42593436  0.94982269  0.30421309    -0.37100
N1471       N  0.44015156  0.89430955  0.26840536    -0.38200
N1472       N  0.52780132  0.90491382  0.26967064    -0.39800
C1473       C  0.24729057  0.99775438  0.18277823    -0.04800
C1474       C  0.27832719  0.99608914  0.18328524     0.09400
C1475       C  0.29147679  0.97730095  0.18854125    -0.02200
C1476       C  0.27362159  0.95970611  0.19319715    -0.00400
C1477       C  0.24237833  0.96107937  0.19267310    -0.04000
C1478       C  0.22932961  0.98035199  0.18744924     0.03000
C1479       C  0.29721531  0.01398697  0.17819030     0.09800
C1480       C  0.32345186  0.97652013  0.18921625     0.35700
C1481       C  0.19742970  0.98174159  0.18668644     0.39100
C1482       C  0.30651459  0.04255866  0.18021685    -0.04400
C1483       C  0.32353587  0.05981786  0.17528967     0.02800
C1484       C  0.32982068  0.04929301  0.16803518    -0.04000
C1485       C  0.32470447  0.01860829  0.16665541    -0.00200
C1486       C  0.30707731  0.00169889  0.17151131    -0.02800
C1487       C  0.29887109  0.05394820  0.18745578     0.36500
C1488       C  0.34001634  0.00310532  0.16078742     0.40100
C1489       C  0.33639191  0.08715493  0.17802205     0.39200
C1490       C  0.29936688  0.97134564  0.16968942     0.36100
C1491       C  0.23391622  0.01750513  0.17743002     0.36800
C1492       C  0.28754420  0.94098281  0.19868517     0.40100
N1493       N  0.34654518  0.10882086  0.18031798    -0.38000
N1494       N  0.29280439  0.06289238  0.19324128    -0.39600
N1495       N  0.35216245  0.99036722  0.15615357    -0.37300
N1496       N  0.29315124  0.94717699  0.16822965    -0.39700
N1497       N  0.34895692  0.97610777  0.18976125    -0.39500
N1498       N  0.29869184  0.92605984  0.20305794    -0.37100
N1499       N  0.17199592  0.98298216  0.18604771    -0.38200
N1500       N  0.22337240  0.03335233  0.17316848    -0.39800
C1501       C  0.15123480  0.70090951  0.20213265    -0.04800
C1502       C  0.17839300  0.71626798  0.20252287     0.09400
C1503       C  0.20506856  0.70026134  0.20299471    -0.02200
C1504       C  0.20458570  0.66902029  0.20330783    -0.00400
C1505       C  0.17733277  0.65351197  0.20302128    -0.04000
C1506       C  0.15066731  0.66967917  0.20234000     0.03000
C1507       C  0.17881500  0.74935424  0.20308354     0.09800
C1508       C  0.23299034  0.71613753  0.20333837     0.35700
C1509       C  0.12255242  0.65422937  0.20175681     0.39100
C1510       C  0.17800001  0.76278369  0.21008884    -0.04400
C1511       C  0.17926535  0.79385242  0.21075723     0.02800
C1512       C  0.18107008  0.81201153  0.20437987    -0.04000
C1513       C  0.18182164  0.79835127  0.19733293    -0.00200
C1514       C  0.18065659  0.76714496  0.19670841    -0.02800
C1515       C  0.17621885  0.74440362  0.21664452     0.36500
C1516       C  0.18327166  0.81619798  0.19068960     0.40100
C1517       C  0.18005855  0.80684025  0.21807715     0.39200
C1518       C  0.18139909  0.75318648  0.18950767     0.36100
C1519       C  0.12380342  0.71736037  0.20164826     0.36800
C1520       C  0.23204833  0.65306407  0.20437475     0.40100
N1521       N  0.18076568  0.81713914  0.22391899    -0.38000
N1522       N  0.17482131  0.72965650  0.22185428    -0.39600
N1523       N  0.18450576  0.83029278  0.18536450    -0.37300
N1524       N  0.18197672  0.74194774  0.18377432    -0.39700
N1525       N  0.25518530  0.72894478  0.20360061    -0.39500
N1526       N  0.25397672  0.64042620  0.20528385    -0.37100
N1527       N  0.10017234  0.64183451  0.20129768    -0.38200
N1528       N  0.10191035  0.73048018  0.20127381    -0.39800
C1529       C  0.04846986  0.94335313  0.19943745    -0.04800
C1530       C  0.03084826  0.93616842  0.20560534     0.09400
C1531       C  0.04440853  0.92699025  0.21221241    -0.02200
C1532       C  0.07540570  0.92383074  0.21257705    -0.00400
C1533       C  0.09323701  0.92992168  0.20630491    -0.04000
C1534       C  0.07949376  0.94000734  0.19974240     0.03000
C1535       C  0.99788302  0.93493671  0.20489038     0.09800
C1536       C  0.02625349  0.91954521  0.21855979     0.35700
C1537       C  0.09696108  0.94661837  0.19323105     0.39100
C1538       C  0.98461913  0.91040497  0.20138573    -0.04400
C1539       C  0.95357737  0.90800041  0.20098537     0.02800
C1540       C  0.93538515  0.93027480  0.20408887    -0.04000
C1541       C  0.94883209  0.95524251  0.20745196    -0.00200
C1542       C  0.97997532  0.95752791  0.20783867    -0.02800
C1543       C  0.00309776  0.88734045  0.19826475     0.36500
C1544       C  0.93075147  0.97900928  0.21036375     0.40100
C1545       C  0.94060758  0.88184279  0.19762497     0.39200
C1546       C  0.99368839  0.98319408  0.21123285     0.36100
C1547       C  0.03438854  0.95346087  0.19270526     0.36800
C1548       C  0.08851236  0.91218198  0.21928058     0.40100
N1549       N  0.93041072  0.86096065  0.19492502    -0.38000
N1550       N  0.01794548  0.86911699  0.19575124    -0.39600
N1551       N  0.91633286  0.99799531  0.21267612    -0.37300
N1552       N  0.00462164  0.00369779  0.21393283    -0.39700
N1553       N  0.01180376  0.91361438  0.22362572    -0.39500
N1554       N  0.09895974  0.90274074  0.22460776    -0.37100
N1555       N  0.11053266  0.95171796  0.18796358    -0.38200
N1556       N  0.02296044  0.96143800  0.18735601    -0.39800
C1557       C  0.28900080  0.94432280  0.25346661    -0.04800
C1558       C  0.26978372  0.92147434  0.25117442     0.09400
C1559       C  0.26441516  0.89721543  0.25588751    -0.02200
C1560       C  0.27900816  0.89517452  0.26274745    -0.00400
C1561       C  0.29944539  0.91739966  0.26494382    -0.04000
C1562       C  0.30403541  0.94220495  0.26027717     0.03000
C1563       C  0.25666525  0.92175349  0.24358245     0.09800
C1564       C  0.24416774  0.87400205  0.25358078     0.35700
C1565       C  0.32400171  0.96581568  0.26247459     0.39100
C1566       C  0.27084772  0.90627533  0.23783517    -0.04400
C1567       C  0.25812413  0.90517649  0.23073655     0.02800
C1568       C  0.23034237  0.91859507  0.22937512    -0.04000
C1569       C  0.21624055  0.93425890  0.23517179    -0.00200
C1570       C  0.22966570  0.93624709  0.24219658    -0.02800
C1571       C  0.29847263  0.89106543  0.23928353     0.36500
C1572       C  0.18720545  0.94710700  0.23407086     0.40100
C1573       C  0.27420486  0.89082339  0.22480824     0.39200
C1574       C  0.21552866  0.95287103  0.24805561     0.36100
C1575       C  0.29331615  0.97001464  0.24878352     0.36800
C1576       C  0.27382184  0.86936801  0.26734922     0.40100
N1577       N  0.28714944  0.87949022  0.22008342    -0.38000
N1578       N  0.32038334  0.87879099  0.24047791    -0.39600
N1579       N  0.16395375  0.95719476  0.23321551    -0.37300
N1580       N  0.20436839  0.96629345  0.25272113    -0.39700
N1581       N  0.22803243  0.85552016  0.25171915    -0.39500
N1582       N  0.26958085  0.84877218  0.27100559    -0.37100
N1583       N  0.34002588  0.98460632  0.26420406    -0.38200
N1584       N  0.29657482  0.99063239  0.24507647    -0.39800
C1585       C  0.20214781  0.43418246  0.31071784    -0.04800
C1586       C  0.22820880  0.44863085  0.31294125     0.09400
C1587       C  0.23893801  0.44439723  0.32013721    -0.02200
C1588       C  0.22320898  0.42642947  0.32519268    -0.00400
C1589       C  0.19471963  0.41480559  0.32334173    -0.04000
C1590       C  0.18602880  0.41662946  0.31576789     0.03000
C1591       C  0.24564683  0.46650817  0.30749706     0.09800
C1592       C  0.26686552  0.45792001  0.32225268     0.35700
C1593       C  0.16199137  0.39861852  0.31289256     0.39100
C1594       C  0.23979252  0.49686705  0.30660055    -0.04400
C1595       C  0.25658410  0.51394115  0.30158639     0.02800
C1596       C  0.27876338  0.50045089  0.29717318    -0.04000
C1597       C  0.28398366  0.46962559  0.29798654    -0.00200
C1598       C  0.26783898  0.45295220  0.30321820    -0.02800
C1599       C  0.21636235  0.51051115  0.31087495     0.36500
C1600       C  0.30527963  0.45457027  0.29332575     0.40100
C1601       C  0.25155029  0.54562019  0.30123692     0.39200
C1602       C  0.27398416  0.42169239  0.30422270     0.36100
C1603       C  0.19230381  0.43692300  0.30312648     0.36800
C1604       C  0.23876980  0.41700346  0.33176713     0.40100
N1605       N  0.24756635  0.57089886  0.30099648    -0.38000
N1606       N  0.19754426  0.52129312  0.31425886    -0.39600
N1607       N  0.32214923  0.44237854  0.28961310    -0.37300
N1608       N  0.27889423  0.39679576  0.30506922    -0.39700
N1609       N  0.28911614  0.46875981  0.32391605    -0.39500
N1610       N  0.25174223  0.40953057  0.33694245    -0.37100
N1611       N  0.14293885  0.38424657  0.31055236    -0.38200
N1612       N  0.18455887  0.43915233  0.29707032    -0.39800
C1613       C  0.97986593  0.40270438  0.32785729    -0.04800
C1614       C  0.99611649  0.39839939  0.33438855     0.09400
C1615       C  0.98132433  0.39805414  0.34121567    -0.02200
C1616       C  0.95019540  0.39999219  0.34149207    -0.00400
C1617       C  0.93334450  0.40146394  0.33489586    -0.04000
C1618       C  0.94867303  0.40457823  0.32809035     0.03000
C1619       C  0.02899123  0.39445448  0.33409380     0.09800
C1620       C  0.99833027  0.39572552  0.34798089     0.35700
C1621       C  0.93293591  0.40976750  0.32126237     0.39100
C1622       C  0.04774115  0.41921184  0.33354594    -0.04400
C1623       C  0.07874823  0.41557583  0.33324384     0.02800
C1624       C  0.09159278  0.38670584  0.33332616    -0.04000
C1625       C  0.07224514  0.36197779  0.33426817    -0.00200
C1626       C  0.04125811  0.36596374  0.33457827    -0.02800
C1627       C  0.03487852  0.44862719  0.33341889     0.36500
C1628       C  0.08326644  0.33214199  0.33514100     0.40100
C1629       C  0.09696354  0.44208472  0.33319901     0.39200
C1630       C  0.02171457  0.34058515  0.33545769     0.36100
C1631       C  0.99540405  0.40481749  0.32086580     0.36800
C1632       C  0.93612190  0.40214278  0.34865141     0.40100
N1633       N  0.11100502  0.46355396  0.33305916    -0.38000
N1634       N  0.02442918  0.47197518  0.33332546    -0.39600
N1635       N  0.09071066  0.30798906  0.33614957    -0.37300
N1636       N  0.00615325  0.32039529  0.33619378    -0.39700
N1637       N  0.01192783  0.39387931  0.35336573    -0.39500
N1638       N  0.92630807  0.40425275  0.35452127    -0.37100
N1639       N  0.92123390  0.41458798  0.31572122    -0.38200
N1640       N  0.00789191  0.40661819  0.31530737    -0.39800
C1641       C  0.78731066  0.45937326  0.32509825    -0.04800
C1642       C  0.78812597  0.45392038  0.31748469     0.09400
C1643       C  0.80858902  0.43365492  0.31463581    -0.02200
C1644       C  0.82790930  0.41828060  0.31939626    -0.00400
C1645       C  0.82668709  0.42239615  0.32723712    -0.04000
C1646       C  0.80711722  0.44485368  0.32992081     0.03000
C1647       C  0.76883471  0.47144748  0.31240586     0.09800
C1648       C  0.80968600  0.42868251  0.30672591     0.35700
C1649       C  0.80837057  0.45613964  0.33737182     0.39100
C1650       C  0.77927070  0.49843302  0.30946977    -0.04400
C1651       C  0.76085388  0.51574877  0.30493538     0.02800
C1652       C  0.73160192  0.50635386  0.30335887    -0.04000
C1653       C  0.72129478  0.47907696  0.30626599    -0.00200
C1654       C  0.73997354  0.46163170  0.31073470    -0.02800
C1655       C  0.80911060  0.50833931  0.31112309     0.36500
C1656       C  0.69115549  0.46937709  0.30491693     0.40100
C1657       C  0.77250567  0.54279094  0.30170207     0.39200
C1658       C  0.72957898  0.43356395  0.31365782     0.36100
C1659       C  0.76618684  0.48073590  0.32794737     0.36800
C1660       C  0.84920938  0.39842646  0.31603208     0.40100
N1661       N  0.78176463  0.56432694  0.29910516    -0.38000
N1662       N  0.83291999  0.51621243  0.31243752    -0.39600
N1663       N  0.66709300  0.46158543  0.30388077    -0.37300
N1664       N  0.72146091  0.41110158  0.31598727    -0.39700
N1665       N  0.81046871  0.42475286  0.30042187    -0.39500
N1666       N  0.86559792  0.38225914  0.31325192    -0.37100
N1667       N  0.80793483  0.46636689  0.34322118    -0.38200
N1668       N  0.74926239  0.49766324  0.33019308    -0.39800
C1669       C  0.89908452  0.21159787  0.33292357    -0.04800
C1670       C  0.87219791  0.22572045  0.33119880     0.09400
C1671       C  0.84783922  0.20842913  0.32892619    -0.02200
C1672       C  0.84973256  0.17719730  0.32882190    -0.00400
C1673       C  0.87692267  0.16270546  0.33047653    -0.04000
C1674       C  0.90190465  0.18063044  0.33218962     0.03000
C1675       C  0.86983472  0.25886569  0.33169299     0.09800
C1676       C  0.82062035  0.22287740  0.32668447     0.35700
C1677       C  0.93128123  0.16816473  0.33280717     0.39100
C1678       C  0.88726856  0.27710926  0.32704832    -0.04400
C1679       C  0.88753829  0.30806296  0.32804936     0.02800
C1680       C  0.86826024  0.32123581  0.33318911    -0.04000
C1681       C  0.84882015  0.30328782  0.33735261    -0.00200
C1682       C  0.85076549  0.27218389  0.33691235    -0.02800
C1683       C  0.90467405  0.26402778  0.32117172     0.36500
C1684       C  0.82699363  0.31685164  0.34214712     0.40100
C1685       C  0.90767400  0.32629177  0.32377508     0.39200
C1686       C  0.83358462  0.25395720  0.34193855     0.36100
C1687       C  0.92409340  0.22906168  0.33549487     0.36800
C1688       C  0.82306722  0.16061128  0.32714235     0.40100
N1689       N  0.92406723  0.34047584  0.32036153    -0.38000
N1690       N  0.91847267  0.25355022  0.31647537    -0.39600
N1691       N  0.80960612  0.32773551  0.34596214    -0.37300
N1692       N  0.81986204  0.23941402  0.34594406    -0.39700
N1693       N  0.79888644  0.23436945  0.32493146    -0.39500
N1694       N  0.80142084  0.14818550  0.32568624    -0.37100
N1695       N  0.95532397  0.15973152  0.33332914    -0.38200
N1696       N  0.94404351  0.24299555  0.33750937    -0.39800
C1697       C  0.79936175  0.04184869  0.31795635    -0.04800
C1698       C  0.81147536  0.02527739  0.31215107     0.09400
C1699       C  0.84198252  0.02718902  0.31070803    -0.02200
C1700       C  0.86059120  0.04507427  0.31515551    -0.00400
C1701       C  0.84928151  0.05943876  0.32160155    -0.04000
C1702       C  0.81779074  0.05895153  0.32259312     0.03000
C1703       C  0.79173200  0.00622765  0.30746436     0.09800
C1704       C  0.85419001  0.01089456  0.30450972     0.35700
C1705       C  0.80353137  0.07632597  0.32831219     0.39100
C1706       C  0.78224501  0.01613734  0.30047664    -0.04400
C1707       C  0.76292837  0.99852917  0.29618165     0.02800
C1708       C  0.75297922  0.97068417  0.29883852    -0.04000
C1709       C  0.76232261  0.96104537  0.30590037    -0.00200
C1710       C  0.78162224  0.97871597  0.31016677    -0.02800
C1711       C  0.79238127  0.04458507  0.29772380     0.36500
C1712       C  0.75123235  0.93344717  0.30894636     0.40100
C1713       C  0.75397622  0.00892739  0.28895038     0.39200
C1714       C  0.79099002  0.96875766  0.31740450     0.36100
C1715       C  0.76754966  0.04132009  0.31912204     0.36800
C1716       C  0.89020633  0.05042822  0.31242256     0.40100
N1717       N  0.74680676  0.01732412  0.28319300    -0.38000
N1718       N  0.80059687  0.06724011  0.29553506    -0.39600
N1719       N  0.74233909  0.91149629  0.31140200    -0.37300
N1720       N  0.79844991  0.96103865  0.32319622    -0.39700
N1721       N  0.86390477  0.99795635  0.29956541    -0.39500
N1722       N  0.91357400  0.05388440  0.30994388    -0.37100
N1723       N  0.79179980  0.08958798  0.33292087    -0.38200
N1724       N  0.74219892  0.04077191  0.32001958    -0.39800
C1725       C  0.06184581  0.06306087  0.33092882    -0.04800
C1726       C  0.04703579  0.09043651  0.33119227     0.09400
C1727       C  0.06361985  0.11687432  0.33128459    -0.02200
C1728       C  0.09485682  0.11602676  0.33123155    -0.00400
C1729       C  0.11001626  0.08860430  0.33146245    -0.04000
C1730       C  0.09310540  0.06201346  0.33116658     0.03000
C1731       C  0.01385455  0.09152037  0.33147506     0.09800
C1732       C  0.04835246  0.14508064  0.33150917     0.35700
C1733       C  0.10743471  0.03338826  0.33167593     0.39100
C1734       C  0.99899542  0.09014822  0.33831104    -0.04400
C1735       C  0.96773348  0.09149158  0.33861970     0.02800
C1736       C  0.95095061  0.09327991  0.33203414    -0.04000
C1737       C  0.96623829  0.09720615  0.32525617    -0.00200
C1738       C  0.99741646  0.09581577  0.32497230    -0.02800
C1739       C  0.01610171  0.08808749  0.34506081     0.36500
C1740       C  0.95013670  0.10588083  0.31868850     0.40100
C1741       C  0.95357958  0.09296138  0.34576649     0.39200
C1742       C  0.01274550  0.09963057  0.31800146     0.36100
C1743       C  0.04476053  0.03586487  0.33055271     0.36800
C1744       C  0.11095895  0.14366522  0.33062127     0.40100
N1745       N  0.94358026  0.09519753  0.35161488    -0.38000
N1746       N  0.02978389  0.08657823  0.35043869    -0.39600
N1747       N  0.93744368  0.11354909  0.31349176    -0.37300
N1748       N  0.02503179  0.10284114  0.31245398    -0.39700
N1749       N  0.03610502  0.16752018  0.33171328    -0.39500
N1750       N  0.12270755  0.16632415  0.33004539    -0.37100
N1751       N  0.11881683  0.01054189  0.33211084    -0.38200
N1752       N  0.03114441  0.01416366  0.33022492    -0.39800
C1753       C  0.17922832  0.20403624  0.33984974    -0.04800
C1754       C  0.18380075  0.21851107  0.33305246     0.09400
C1755       C  0.19180717  0.20179920  0.32681819    -0.02200
C1756       C  0.19263559  0.17058556  0.32718616    -0.00400
C1757       C  0.18723186  0.15559727  0.33398751    -0.04000
C1758       C  0.18196436  0.17295578  0.34037959     0.03000
C1759       C  0.17981480  0.25137998  0.33243188     0.09800
C1760       C  0.19879099  0.21690405  0.31995479     0.35700
C1761       C  0.17984539  0.15939682  0.34760053     0.39100
C1762       C  0.20069910  0.27086624  0.33561577    -0.04400
C1763       C  0.19589766  0.30168278  0.33543537     0.02800
C1764       C  0.17034140  0.31317505  0.33199909    -0.04000
C1765       C  0.15167093  0.29404483  0.32800067    -0.00200
C1766       C  0.15549377  0.26314607  0.32850391    -0.02800
C1767       C  0.22725193  0.25918917  0.33900995     0.36500
C1768       C  0.12996012  0.30623411  0.32296638     0.40100
C1769       C  0.21711771  0.32162082  0.33884088     0.39200
C1770       C  0.13437270  0.24353453  0.32497141     0.36100
C1771       C  0.17099966  0.22115578  0.34630355     0.36800
C1772       C  0.19761446  0.15448779  0.32038536     0.40100
N1773       N  0.23390840  0.33763113  0.34156061    -0.38000
N1774       N  0.24848596  0.24986512  0.34169541    -0.39600
N1775       N  0.11288422  0.31599513  0.31888975    -0.37300
N1776       N  0.11746564  0.22803136  0.32211960    -0.39700
N1777       N  0.20434246  0.22902799  0.31449917    -0.39500
N1778       N  0.20198091  0.14230925  0.31487988    -0.37100
N1779       N  0.17796046  0.14956441  0.35347400    -0.38200
N1780       N  0.16439567  0.23471666  0.35145874    -0.39800
C1781       C  0.26012830  0.02183520  0.32363828    -0.04800
C1782       C  0.25215664  0.01696138  0.31624051     0.09400
C1783       C  0.22725525  0.03149719  0.31334977    -0.02200
C1784       C  0.21018745  0.05041875  0.31784185    -0.00400
C1785       C  0.21543303  0.05235425  0.32561060    -0.04000
C1786       C  0.24240109  0.03975513  0.32826255     0.03000
C1787       C  0.27114819  0.99804899  0.31134412     0.09800
C1788       C  0.21928987  0.02718051  0.30566273     0.35700
C1789       C  0.25415820  0.04682300  0.33547354     0.39100
C1790       C  0.27163978  0.96704624  0.31226909    -0.04400
C1791       C  0.28870660  0.94916709  0.30750907     0.02800
C1792       C  0.30534427  0.96215410  0.30168667    -0.04000
C1793       C  0.30556201  0.99343782  0.30096020    -0.00200
C1794       C  0.28868739  0.01119785  0.30578233    -0.02800
C1795       C  0.25427018  0.95348732  0.31811037     0.36500
C1796       C  0.32365175  0.00771488  0.29536801     0.40100
C1797       C  0.28819992  0.91730623  0.30853975     0.39200
C1798       C  0.28943125  0.04319657  0.30504568     0.36100
C1799       C  0.28725034  0.00882633  0.32644444     0.36800
C1800       C  0.18879593  0.06931220  0.31419364     0.40100
N1801       N  0.28779310  0.89192163  0.30941019    -0.38000
N1802       N  0.24061385  0.94274739  0.32281183    -0.39600
N1803       N  0.33801792  0.01922347  0.29091559    -0.37300
N1804       N  0.28985288  0.06870277  0.30444980    -0.39700
N1805       N  0.21297067  0.02381275  0.29953543    -0.39500
N1806       N  0.17169837  0.08406402  0.31119990    -0.37100
N1807       N  0.26470064  0.05155022  0.34116530    -0.38200
N1808       N  0.30880636  0.99832782  0.32866044    -0.39800
C1809       C  0.13612988  0.39409715  0.37788666    -0.04800
C1810       C  0.16305722  0.39073951  0.37405534     0.09400
C1811       C  0.18924855  0.38512243  0.37802766    -0.02200
C1812       C  0.18851998  0.38285474  0.38578545    -0.00400
C1813       C  0.16161926  0.38673995  0.38968098    -0.04000
C1814       C  0.13530491  0.39180131  0.38565485     0.03000
C1815       C  0.16315355  0.38923675  0.36579764     0.09800
C1816       C  0.21677939  0.38041038  0.37408356     0.35700
C1817       C  0.10699747  0.39365972  0.38934443     0.39100
C1818       C  0.16206015  0.41511364  0.36147836    -0.04400
C1819       C  0.16149043  0.41319817  0.35368931     0.02800
C1820       C  0.16332135  0.38524340  0.35009906    -0.04000
C1821       C  0.16355145  0.35929703  0.35456487    -0.00200
C1822       C  0.16313552  0.36142850  0.36232444    -0.02800
C1823       C  0.16092275  0.44374610  0.36508646     0.36500
C1824       C  0.16341515  0.32987086  0.35141801     0.40100
C1825       C  0.15706656  0.44008287  0.34946852     0.39200
C1826       C  0.16183715  0.33473573  0.36679865     0.36100
C1827       C  0.10904117  0.39901415  0.37377467     0.36800
C1828       C  0.21475386  0.37294075  0.38966184     0.40100
N1829       N  0.15352618  0.46171492  0.34617063    -0.38000
N1830       N  0.15990733  0.46656262  0.36797425    -0.39600
N1831       N  0.16223831  0.30567041  0.34935739    -0.37300
N1832       N  0.16058804  0.31342231  0.37032867    -0.39700
N1833       N  0.23870174  0.37647098  0.37093602    -0.39500
N1834       N  0.23544687  0.36412611  0.39269429    -0.37100
N1835       N  0.08360266  0.39476562  0.39191085    -0.38200
N1836       N  0.08750197  0.40297757  0.37047806    -0.39800
C1837       C  0.19781012  0.08303021  0.36333542    -0.04800
C1838       C  0.17084082  0.07613990  0.36685345     0.09400
C1839       C  0.14537307  0.07074302  0.36258451    -0.02200
C1840       C  0.14678308  0.07230750  0.35481293    -0.00400
C1841       C  0.17376435  0.07932364  0.35124448    -0.04000
C1842       C  0.19926183  0.08482996  0.35557528     0.03000
C1843       C  0.16874035  0.07698997  0.37509084     0.09800
C1844       C  0.11752458  0.06412438  0.36623509     0.35700
C1845       C  0.22640806  0.09498126  0.35212117     0.39100
C1846       C  0.16475376  0.10423569  0.37867837    -0.04400
C1847       C  0.16356817  0.10564792  0.38644936     0.02800
C1848       C  0.16520225  0.07940429  0.39078549    -0.04000
C1849       C  0.16905215  0.05192753  0.38705603    -0.00200
C1850       C  0.17105001  0.05089788  0.37927629    -0.02800
C1851       C  0.16190426  0.13105007  0.37430103     0.36500
C1852       C  0.17056278  0.02428199  0.39108792     0.40100
C1853       C  0.16199140  0.13475156  0.38974453     0.39200
C1854       C  0.17547881  0.02287675  0.37553017     0.36100
C1855       C  0.22386410  0.08921266  0.36775049     0.36800
C1856       C  0.12021452  0.06659555  0.35060783     0.40100
N1857       N  0.16067839  0.15893352  0.39180262    -0.38000
N1858       N  0.15956478  0.15237978  0.37081590    -0.39600
N1859       N  0.17214899  0.00185828  0.39414338    -0.37300
N1860       N  0.17903352  0.00054028  0.37254053    -0.39700
N1861       N  0.09534248  0.05887382  0.36915818    -0.39500
N1862       N  0.09816587  0.06183869  0.34760217    -0.37100
N1863       N  0.24800711  0.10381509  0.34947446    -0.38200
N1864       N  0.24454979  0.09423177  0.37129868    -0.39800
C1865       C  0.19033308  0.19773754  0.40748726    -0.04800
C1866       C  0.16477612  0.21534181  0.40780634     0.09400
C1867       C  0.13667048  0.20180328  0.40779635    -0.02200
C1868       C  0.13405040  0.17063744  0.40772612    -0.00400
C1869       C  0.15974988  0.15265438  0.40799515    -0.04000
C1870       C  0.18787058  0.16662347  0.40742021     0.03000
C1871       C  0.16735128  0.24832678  0.40756060     0.09800
C1872       C  0.11034969  0.22014267  0.40761203     0.35700
C1873       C  0.21387499  0.14929029  0.40564696     0.39100
C1874       C  0.16734594  0.26313267  0.40073380    -0.04400
C1875       C  0.16838344  0.29434472  0.40046306     0.02800
C1876       C  0.16925140  0.31120434  0.40706294    -0.04000
C1877       C  0.16996285  0.29590640  0.41392382    -0.00200
C1878       C  0.16912569  0.26467901  0.41413798    -0.02800
C1879       C  0.16600759  0.24602076  0.39396250     0.36500
C1880       C  0.16924997  0.31181810  0.42085435     0.40100
C1881       C  0.16879064  0.30851482  0.39330770     0.39200
C1882       C  0.16930686  0.24920977  0.42115799     0.36100
C1883       C  0.21915533  0.21180593  0.40691482     0.36800
C1884       C  0.10492800  0.15797877  0.40666084     0.40100
N1885       N  0.16881426  0.31848580  0.38743434    -0.38000
N1886       N  0.16494357  0.23230622  0.38857897    -0.39600
N1887       N  0.16869211  0.32365968  0.42650498    -0.37300
N1888       N  0.16944104  0.23685302  0.42675031    -0.39700
N1889       N  0.08934480  0.23470038  0.40742956    -0.39500
N1890       N  0.08125272  0.14939438  0.40547835    -0.37100
N1891       N  0.23450916  0.13577960  0.40396471    -0.38200
N1892       N  0.24207578  0.22313723  0.40642344    -0.39800
C1893       C  0.83343287  0.36655820  0.38048576    -0.04800
C1894       C  0.85412796  0.38478879  0.37677123     0.09400
C1895       C  0.87414846  0.40221036  0.38091791    -0.02200
C1896       C  0.87362161  0.40106739  0.38867159    -0.00400
C1897       C  0.85545540  0.38019620  0.39230133    -0.04000
C1898       C  0.83468259  0.36361868  0.38822732     0.03000
C1899       C  0.85585882  0.38471813  0.36851377     0.09800
C1900       C  0.89610188  0.42048605  0.37722253     0.35700
C1901       C  0.81442750  0.34379893  0.39199413     0.39100
C1902       C  0.85029433  0.41078837  0.36449425    -0.04400
C1903       C  0.85611866  0.41178270  0.35688019     0.02800
C1904       C  0.86260743  0.38552235  0.35290954    -0.04000
C1905       C  0.86859546  0.35933276  0.35698824    -0.00200
C1906       C  0.86581688  0.35925939  0.36475565    -0.02800
C1907       C  0.83890013  0.43684013  0.36820487     0.36500
C1908       C  0.87926881  0.33268975  0.35345935     0.40100
C1909       C  0.85996980  0.44048168  0.35340862     0.39200
C1910       C  0.87378599  0.33301484  0.36893182     0.36100
C1911       C  0.81097963  0.35077190  0.37632727     0.36800
C1912       C  0.89214171  0.42113014  0.39290632     0.40100
N1913       N  0.86429090  0.46340321  0.35075877    -0.38000
N1914       N  0.82972370  0.45758977  0.37115477    -0.39600
N1915       N  0.88864438  0.31110568  0.35095127    -0.37300
N1916       N  0.88004417  0.31212458  0.37227350    -0.39700
N1917       N  0.91357176  0.43506778  0.37426785    -0.39500
N1918       N  0.90697382  0.43716493  0.39625094    -0.37100
N1919       N  0.79804473  0.32799527  0.39493902    -0.38200
N1920       N  0.79304889  0.33823738  0.37300005    -0.39800
C1921       C  0.98236766  0.38067545  0.41521343    -0.04800
C1922       C  0.99825937  0.38024221  0.40855217     0.09400
C1923       C  0.98301364  0.37756989  0.40182714    -0.02200
C1924       C  0.95182309  0.37526547  0.40172861    -0.00400
C1925       C  0.93528441  0.37748226  0.40839774    -0.04000
C1926       C  0.95119689  0.37906117  0.41517555     0.03000
C1927       C  0.03134184  0.38045596  0.40866678     0.09800
C1928       C  0.99966555  0.37692484  0.39497301     0.35700
C1929       C  0.93599327  0.37675411  0.42220796     0.39100
C1930       C  0.04683440  0.35365981  0.40946633    -0.04400
C1931       C  0.07801881  0.35360062  0.40960575     0.02800
C1932       C  0.09407594  0.38034805  0.40874639    -0.04000
C1933       C  0.07831901  0.40732809  0.40805242    -0.00200
C1934       C  0.04708546  0.40729852  0.40804444    -0.02800
C1935       C  0.03052816  0.32601761  0.41010781     0.36500
C1936       C  0.09404028  0.43494239  0.40679735     0.40100
C1937       C  0.09309572  0.32587429  0.41090202     0.39200
C1938       C  0.03100548  0.43482558  0.40722787     0.36100
C1939       C  0.99835917  0.38235760  0.42214390     0.36800
C1940       C  0.93782437  0.36865917  0.39474397     0.40100
N1941       N  0.10379167  0.30310230  0.41201955    -0.38000
N1942       N  0.01756435  0.30396608  0.41060265    -0.39600
N1943       N  0.10661725  0.45691839  0.40576301    -0.37300
N1944       N  0.01809770  0.45674188  0.40656678    -0.39700
N1945       N  0.01288346  0.37658021  0.38950372    -0.39500
N1946       N  0.92804145  0.36227235  0.38906354    -0.37100
N1947       N  0.92417316  0.37497906  0.42785626    -0.38200
N1948       N  0.01125698  0.38365186  0.42764558    -0.39800
C1949       C  0.87512034  0.10746542  0.37628128    -0.04800
C1950       C  0.86460257  0.08320521  0.37214692     0.09400
C1951       C  0.85385054  0.05812696  0.37592909    -0.02200
C1952       C  0.85555231  0.05657536  0.38370398    -0.00400
C1953       C  0.86286904  0.08218304  0.38797991    -0.04000
C1954       C  0.87198477  0.10804526  0.38404938     0.03000
C1955       C  0.86558687  0.08395611  0.36382565     0.09800
C1956       C  0.84121274  0.03359836  0.37180568     0.35700
C1957       C  0.87829688  0.13574278  0.38774404     0.39100
C1958       C  0.88341323  0.06371528  0.35986625    -0.04400
C1959       C  0.88429848  0.06457082  0.35208764     0.02800
C1960       C  0.87024182  0.08771451  0.34823394    -0.04000
C1961       C  0.85248519  0.10800680  0.35213445    -0.00200
C1962       C  0.84929734  0.10547335  0.35986614    -0.02800
C1963       C  0.90199719  0.04287995  0.36378868     0.36500
C1964       C  0.83712673  0.13125517  0.34818933     0.40100
C1965       C  0.90051889  0.04214430  0.34804060     0.39200
C1966       C  0.82929036  0.12508844  0.36375782     0.36100
C1967       C  0.89019930  0.13158875  0.37251778     0.36800
C1968       C  0.85187259  0.02768026  0.38709353     0.40100
N1969       N  0.91335935  0.02431299  0.34477456    -0.38000
N1970       N  0.91692265  0.02633880  0.36691743    -0.39600
N1971       N  0.82477161  0.14991745  0.34510524    -0.37300
N1972       N  0.81341259  0.14075362  0.36688144    -0.39700
N1973       N  0.83112181  0.01406140  0.36852143    -0.39500
N1974       N  0.84893107  0.00447757  0.38971158    -0.37100
N1975       N  0.88389878  0.15836100  0.39040598    -0.38200
N1976       N  0.90250352  0.15054174  0.36948974    -0.39800
C1977       C  0.97643251  0.06758792  0.41500154    -0.04800
C1978       C  0.99475501  0.07548009  0.40900618     0.09400
C1979       C  0.98165196  0.08297676  0.40220594    -0.02200
C1980       C  0.95095790  0.07961885  0.40117487    -0.00400
C1981       C  0.93208055  0.07370549  0.40725467    -0.04000
C1982       C  0.94529013  0.06838263  0.41426768     0.03000
C1983       C  0.02788561  0.07410403  0.40956979     0.09800
C1984       C  0.99995451  0.09397365  0.39619955     0.35700
C1985       C  0.92737482  0.06436234  0.42083840     0.39100
C1986       C  0.04368020  0.05408034  0.40505011    -0.04400
C1987       C  0.07471929  0.05603511  0.40451563     0.02800
C1988       C  0.09039542  0.07612899  0.40899447    -0.04000
C1989       C  0.07496735  0.09333434  0.41422519    -0.00200
C1990       C  0.04374616  0.09366767  0.41421224    -0.02800
C1991       C  0.02786190  0.03158730  0.40089535     0.36500
C1992       C  0.09126254  0.11122102  0.41949886     0.40100
C1993       C  0.09042923  0.03723259  0.39936989     0.39200
C1994       C  0.02812519  0.11493211  0.41875150     0.36100
C1995       C  0.98961274  0.05825256  0.42191589     0.36800
C1996       C  0.93977185  0.07962195  0.39369062     0.40100
N1997       N  0.10252803  0.02208314  0.39521197    -0.38000
N1998       N  0.01511514  0.01369983  0.39760136    -0.39600
N1999       N  0.10436747  0.12548114  0.42368184    -0.37300
N2000       N  0.01573248  0.13194742  0.42237782    -0.39700
N2001       N  0.01462931  0.10285039  0.39144842    -0.39500
N2002       N  0.93206350  0.07911279  0.38761086    -0.37100
N2003       N  0.91330284  0.06115713  0.42611978    -0.38200
N2004       N  0.00011468  0.05082202  0.42743079    -0.39800
C2005       C  0.87653362  0.19198069  0.41427171    -0.04800
C2006       C  0.85899678  0.20879971  0.40935889     0.09400
C2007       C  0.84131916  0.19391593  0.40408728    -0.02200
C2008       C  0.84113332  0.16270583  0.40378443    -0.00400
C2009       C  0.86071090  0.14623638  0.40822963    -0.04000
C2010       C  0.87828605  0.16094523  0.41350634     0.03000
C2011       C  0.86008619  0.24210088  0.40957906     0.09800
C2012       C  0.82391963  0.21065941  0.39883037     0.35700
C2013       C  0.89828230  0.14429812  0.41815121     0.39100
C2014       C  0.88678689  0.25710748  0.40801227    -0.04400
C2015       C  0.88863183  0.28815188  0.40873146     0.02800
C2016       C  0.86279539  0.30522895  0.40999289    -0.04000
C2017       C  0.83555371  0.29001488  0.41113211    -0.00200
C2018       C  0.83472262  0.25874269  0.41139082    -0.02800
C2019       C  0.91255190  0.24052789  0.40561105     0.36500
C2020       C  0.80791918  0.30605506  0.41174366     0.40100
C2021       C  0.91774366  0.30165685  0.40860998     0.39200
C2022       C  0.80772665  0.24365125  0.41359660     0.36100
C2023       C  0.89274768  0.20665284  0.42013843     0.36800
C2024       C  0.82091393  0.14749520  0.39884752     0.40100
N2025       N  0.94160597  0.31099126  0.40856987    -0.38000
N2026       N  0.93304570  0.22730467  0.40368938    -0.39600
N2027       N  0.78574098  0.31865494  0.41221634    -0.37300
N2028       N  0.78624090  0.23158834  0.41537465    -0.39700
N2029       N  0.80999644  0.22402451  0.39464594    -0.39500
N2030       N  0.80470182  0.13532981  0.39494001    -0.37100
N2031       N  0.91453411  0.13157790  0.42190874    -0.38200
N2032       N  0.90565486  0.21841165  0.42481122    -0.39800
C2033       C  0.31943581  0.43264146  0.06397613    -0.04800
C2034       C  0.30998298  0.45982080  0.06691291     0.09400
C2035       C  0.32100465  0.46941282  0.07375303    -0.02200
C2036       C  0.34022965  0.45110603  0.07779967    -0.00400
C2037       C  0.34523501  0.42139334  0.07557234    -0.04000
C2038       C  0.33779710  0.41389959  0.06815644     0.03000
C2039       C  0.29071027  0.47948001  0.06241088     0.09800
C2040       C  0.31329361  0.49853180  0.07650527     0.35700
C2041       C  0.35194375  0.38943773  0.06437273     0.39100
C2042       C  0.25980587  0.47578740  0.06262355    -0.04400
C2043       C  0.24165085  0.49224520  0.05783494     0.02800
C2044       C  0.25441606  0.51280316  0.05282371    -0.04000
C2045       C  0.28549819  0.51700127  0.05280256    -0.00200
C2046       C  0.30352739  0.50033903  0.05757973    -0.02800
C2047       C  0.24682627  0.45450284  0.06769203     0.36500
C2048       C  0.29910110  0.53865540  0.04794339     0.40100
C2049       C  0.21000440  0.48667226  0.05784411     0.39200
C2050       C  0.33541194  0.50424748  0.05747049     0.36100
C2051       C  0.31110319  0.42454869  0.05650635     0.36800
C2052       C  0.35881038  0.46464889  0.08336456     0.40100
N2053       N  0.18479848  0.48205716  0.05786157    -0.38000
N2054       N  0.23660068  0.43751604  0.07174731    -0.39600
N2055       N  0.31005459  0.55586392  0.04406670    -0.37300
N2056       N  0.36084729  0.50728001  0.05741561    -0.39700
N2057       N  0.30702241  0.52173232  0.07869918    -0.39500
N2058       N  0.37475807  0.47617749  0.08745167    -0.37100
N2059       N  0.36319680  0.37012376  0.06126668    -0.38200
N2060       N  0.30456901  0.41826469  0.05053753    -0.39800
C2061       C  0.17656182  0.48703217  0.00546827    -0.04800
C2062       C  0.20365136  0.48315642  0.00173346     0.09400
C2063       C  0.23008614  0.49333234  0.00502001    -0.02200
C2064       C  0.22942206  0.50781770  0.01193605    -0.00400
C2065       C  0.20220001  0.51204260  0.01568632    -0.04000
C2066       C  0.17574998  0.50142147  0.01238047     0.03000
C2067       C  0.20409658  0.46913165  0.99421466     0.09800
C2068       C  0.25807785  0.48847651  0.00129969     0.35700
C2069       C  0.14733643  0.50611000  0.01592150     0.39100
C2070       C  0.20601788  0.48703222  0.98785844    -0.04400
C2071       C  0.20557165  0.47413593  0.98076058     0.02800
C2072       C  0.20223944  0.44306550  0.97991068    -0.04000
C2073       C  0.20027275  0.42516605  0.98633811    -0.00200
C2074       C  0.20149754  0.43816496  0.99343242    -0.02800
C2075       C  0.20766894  0.51896186  0.98863896     0.36500
C2076       C  0.19552738  0.39348318  0.98573113     0.40100
C2077       C  0.20908108  0.49308096  0.97435240     0.39200
C2078       C  0.19943511  0.41974597  0.99997280     0.36100
C2079       C  0.14937207  0.47629094  0.00214471     0.36800
C2080       C  0.25698525  0.51761866  0.01523965     0.40100
N2081       N  0.21192010  0.50824241  0.96925117    -0.38000
N2082       N  0.20882128  0.54442771  0.98927682    -0.39600
N2083       N  0.19161263  0.36820857  0.98529580    -0.37300
N2084       N  0.19768052  0.40517269  0.00520740    -0.39700
N2085       N  0.28039481  0.48450512  0.99833207    -0.39500
N2086       N  0.27901732  0.52543939  0.01785457    -0.37100
N2087       N  0.12461622  0.50974517  0.01872232    -0.38200
N2088       N  0.12774527  0.46754697  0.99950295    -0.39800
C2089       C  0.17419533  0.25975632  0.95254073    -0.04800
C2090       C  0.20109563  0.24495608  0.95389859     0.09400
C2091       C  0.22689534  0.26158424  0.95538315    -0.02200
C2092       C  0.22569896  0.29278125  0.95571045    -0.00400
C2093       C  0.19863663  0.30773169  0.95451370    -0.04000
C2094       C  0.17294072  0.29097974  0.95279872     0.03000
C2095       C  0.20169705  0.21178802  0.95431360     0.09800
C2096       C  0.25460850  0.24644953  0.95674924     0.35700
C2097       C  0.14471645  0.30557062  0.95169223     0.39100
C2098       C  0.20054064  0.19446301  0.94784185    -0.04400
C2099       C  0.19952643  0.16324084  0.94831555     0.02800
C2100       C  0.20007408  0.14905040  0.95528550    -0.04000
C2101       C  0.20110879  0.16657513  0.96175990    -0.00200
C2102       C  0.20217729  0.19772283  0.96126159    -0.02800
C2103       C  0.20041921  0.20884371  0.94068765     0.36500
C2104       C  0.19899532  0.15279497  0.96897573     0.40100
C2105       C  0.19795405  0.14582191  0.94160480     0.39200
C2106       C  0.20323219  0.21547736  0.96792810     0.36100
C2107       C  0.14747951  0.24269008  0.95118129     0.36800
C2108       C  0.25251923  0.30943016  0.95722416     0.40100
N2109       N  0.19648504  0.13192654  0.93625444    -0.38000
N2110       N  0.20029593  0.22029537  0.93497676    -0.39600
N2111       N  0.19699982  0.14190275  0.97473486    -0.37300
N2112       N  0.20427054  0.22975949  0.97321965    -0.39700
N2113       N  0.27667044  0.23436722  0.95788996    -0.39500
N2114       N  0.27388872  0.32272795  0.95844923    -0.37100
N2115       N  0.12214739  0.31707936  0.95081438    -0.38200
N2116       N  0.12621219  0.22901160  0.95011322    -0.39800
C2117       C  0.31972975  0.00446991  0.07076784    -0.04800
C2118       C  0.29812893  0.01595822  0.06602726     0.09400
C2119       C  0.29343713  0.04659447  0.06575445    -0.02200
C2120       C  0.30885062  0.06579306  0.07056326    -0.00400
C2121       C  0.33264006  0.05504132  0.07504467    -0.04000
C2122       C  0.33717382  0.02361454  0.07514050     0.03000
C2123       C  0.27912289  0.99564349  0.06154045     0.09800
C2124       C  0.27222799  0.05834155  0.06049484     0.35700
C2125       C  0.35984734  0.01013922  0.07968676     0.39100
C2126       C  0.25019536  0.98869820  0.06392258    -0.04400
C2127       C  0.23185135  0.97027434  0.05960173     0.02800
C2128       C  0.24235241  0.95866252  0.05282987    -0.04000
C2129       C  0.27164546  0.96537632  0.05053422    -0.00200
C2130       C  0.28977186  0.98400139  0.05484799    -0.02800
C2131       C  0.23921437  0.00096129  0.07079514     0.36500
C2132       C  0.28301237  0.95415833  0.04359131     0.40100
C2133       C  0.20242871  0.96286073  0.06224951     0.39200
C2134       C  0.31912679  0.99210292  0.05228487     0.36100
C2135       C  0.32398429  0.97263513  0.07112446     0.36800
C2136       C  0.29702544  0.09537423  0.07122177     0.40100
N2137       N  0.17898893  0.95701585  0.06439098    -0.38000
N2138       N  0.23049851  0.01094582  0.07625533    -0.39600
N2139       N  0.29216513  0.94514017  0.03807079    -0.37300
N2140       N  0.34247617  0.99872479  0.05022802    -0.39700
N2141       N  0.25556358  0.06762195  0.05624719    -0.39500
N2142       N  0.28640131  0.11862885  0.07145560    -0.37100
N2143       N  0.37841827  0.99892308  0.08306177    -0.38200
N2144       N  0.32735188  0.94727494  0.07140064    -0.39800
C2145       C  0.21822036  0.76678247  0.03306200    -0.04800
C2146       C  0.20504408  0.74981850  0.03871155     0.09400
C2147       C  0.18990514  0.76412513  0.04449283    -0.02200
C2148       C  0.18765790  0.79529348  0.04460207    -0.00400
C2149       C  0.19966718  0.81243181  0.03874737    -0.04000
C2150       C  0.21530376  0.79787080  0.03301763     0.03000
C2151       C  0.20587596  0.71670707  0.03837689     0.09800
C2152       C  0.17584052  0.74655287  0.05021963     0.35700
C2153       C  0.22895948  0.81474205  0.02710263     0.39100
C2154       C  0.22549972  0.70060197  0.04289207    -0.04400
C2155       C  0.22574691  0.66934347  0.04263549     0.02800
C2156       C  0.20664552  0.65402174  0.03776094    -0.04000
C2157       C  0.18683573  0.67029863  0.03328853    -0.00200
C2158       C  0.18639889  0.70146322  0.03362746    -0.02800
C2159       C  0.24522822  0.71630627  0.04784891     0.36500
C2160       C  0.16557973  0.65499710  0.02864098     0.40100
C2161       C  0.24583958  0.65305797  0.04735417     0.39200
C2162       C  0.16519107  0.71793541  0.02925701     0.36100
C2163       C  0.23472370  0.75209292  0.02725964     0.36800
C2164       C  0.17210388  0.80936070  0.05065759     0.40100
N2165       N  0.26179156  0.64011296  0.05115211    -0.38000
N2166       N  0.26082417  0.72893842  0.05181975    -0.39600
N2167       N  0.14853734  0.64276867  0.02497060    -0.37300
N2168       N  0.14821953  0.73112478  0.02580402    -0.39700
N2169       N  0.16459092  0.73240684  0.05475458    -0.39500
N2170       N  0.15984051  0.82040437  0.05553646    -0.37100
N2171       N  0.23977081  0.82814615  0.02236544    -0.38200
N2172       N  0.24791914  0.74036385  0.02264083    -0.39800
C2173       C  0.19271443  0.01565239  0.99336995    -0.04800
C2174       C  0.20612571  0.98765079  0.99415223     0.09400
C2175       C  0.21842577  0.97365170  0.98791527    -0.02200
C2176       C  0.21595269  0.98674180  0.98087296    -0.00400
C2177       C  0.20197260  0.01453922  0.98002686    -0.04000
C2178       C  0.19091204  0.02922507  0.98635800     0.03000
C2179       C  0.20540675  0.97191110  0.00144588     0.09800
C2180       C  0.23355735  0.94559680  0.98876549     0.35700
C2181       C  0.17629481  0.05763325  0.98564916     0.39100
C2182       C  0.18476999  0.94890080  0.00262805    -0.04400
C2183       C  0.18329302  0.93439358  0.00950950     0.02800
C2184       C  0.20155676  0.94365543  0.01543722    -0.04000
C2185       C  0.22302813  0.96609467  0.01414264    -0.00200
C2186       C  0.22504404  0.97991951  0.00715463    -0.02800
C2187       C  0.16464939  0.94042987  0.99675641     0.36500
C2188       C  0.24260827  0.97575170  0.02000907     0.40100
C2189       C  0.16359152  0.90917527  0.01035898     0.39200
C2190       C  0.24723955  0.00257856  0.00582476     0.36100
C2191       C  0.17998025  0.03008132  0.99977268     0.36800
C2192       C  0.22804525  0.97153759  0.97450703     0.40100
N2193       N  0.14806367  0.88891094  0.01100872    -0.38000
N2194       N  0.14861726  0.93374744  0.99206634    -0.39600
N2195       N  0.25834138  0.98351884  0.02466086    -0.37300
N2196       N  0.26496560  0.02062520  0.00475008    -0.39700
N2197       N  0.24569688  0.92325907  0.98945897    -0.39500
N2198       N  0.23751120  0.95930275  0.96942351    -0.37100
N2199       N  0.16462230  0.08029522  0.98510801    -0.38200
N2200       N  0.16985085  0.04152500  0.00489197    -0.39800
C2201       C  0.98246560  0.37784399  0.95523647    -0.04800
C2202       C  0.99764721  0.40520595  0.95535536     0.09400
C2203       C  0.98138173  0.43179819  0.95558951    -0.02200
C2204       C  0.95021713  0.43106657  0.95603346    -0.00400
C2205       C  0.93486518  0.40368166  0.95588681    -0.04000
C2206       C  0.95122906  0.37704623  0.95542939     0.03000
C2207       C  0.03082980  0.40600918  0.95558364     0.09800
C2208       C  0.99681293  0.46000338  0.95537567     0.35700
C2209       C  0.93605523  0.34872214  0.95505387     0.39100
C2210       C  0.04760364  0.39955069  0.94921531    -0.04400
C2211       C  0.07884051  0.39955051  0.94952178     0.02800
C2212       C  0.09360024  0.40672262  0.95617647    -0.04000
C2213       C  0.07667086  0.41372888  0.96251460    -0.00200
C2214       C  0.04549050  0.41291565  0.96223942    -0.02800
C2215       C  0.03262013  0.39254246  0.94235987     0.36500
C2216       C  0.09123589  0.42253789  0.96930677     0.40100
C2217       C  0.09563464  0.39079657  0.94306208     0.39200
C2218       C  0.02840014  0.41872364  0.96886072     0.36100
C2219       C  0.99909899  0.35045103  0.95495761     0.36800
C2220       C  0.93417943  0.45851748  0.95710007     0.40100
N2221       N  0.10899509  0.38364443  0.93791708    -0.38000
N2222       N  0.02060977  0.38681755  0.93690697    -0.39600
N2223       N  0.10290342  0.42962099  0.97470891    -0.37300
N2224       N  0.01476550  0.42329887  0.97414245    -0.39700
N2225       N  0.00909487  0.48251069  0.95517094    -0.39500
N2226       N  0.92136466  0.48034167  0.95802755    -0.37100
N2227       N  0.92401180  0.32609913  0.95475405    -0.38200
N2228       N  0.01245726  0.32866715  0.95469262    -0.39800
C2229       C  0.74264938  0.45902466  0.07434701    -0.04800
C2230       C  0.74234125  0.45046952  0.06690676     0.09400
C2231       C  0.72359277  0.42736643  0.06464762    -0.02200
C2232       C  0.70578830  0.41218782  0.06984998    -0.00400
C2233       C  0.70758971  0.41877745  0.07757082    -0.04000
C2234       C  0.72474023  0.44422817  0.07959675     0.03000
C2235       C  0.76021234  0.46761644  0.06138052     0.09800
C2236       C  0.72223802  0.41962698  0.05688304     0.35700
C2237       C  0.72202333  0.45835782  0.08671470     0.39100
C2238       C  0.78931562  0.45887899  0.05966518    -0.04400
C2239       C  0.80703521  0.47642429  0.05494767     0.02800
C2240       C  0.79561364  0.50283109  0.05184112    -0.04000
C2241       C  0.76614778  0.51119114  0.05347256    -0.00200
C2242       C  0.74861600  0.49368314  0.05823619    -0.02800
C2243       C  0.80103965  0.43184453  0.06281858     0.36500
C2244       C  0.75413324  0.53849323  0.05052664     0.40100
C2245       C  0.83684679  0.46684520  0.05320221     0.39200
C2246       C  0.71873351  0.50278738  0.06005160     0.36100
C2247       C  0.76086737  0.48412059  0.07653907     0.36800
C2248       C  0.68430180  0.39107332  0.06704297     0.40100
N2249       N  0.86064305  0.45921441  0.05182740    -0.38000
N2250       N  0.81031287  0.41022828  0.06532847    -0.39600
N2251       N  0.74454721  0.56027925  0.04818433    -0.37300
N2252       N  0.69492091  0.51004587  0.06152516    -0.39700
N2253       N  0.72118315  0.41348192  0.05069244    -0.39500
N2254       N  0.66723663  0.37440615  0.06470028    -0.37100
N2255       N  0.72092979  0.47090483  0.09226888    -0.38200
N2256       N  0.77532788  0.50417211  0.07824135    -0.39800
C2257       C  0.05159684  0.55681948  0.03668287    -0.04800
C2258       C  0.03997432  0.54670630  0.04344817     0.09400
C2259       C  0.05922613  0.53822518  0.04917252    -0.02200
C2260       C  0.09016855  0.54024095  0.04816698    -0.00400
C2261       C  0.10191174  0.55072794  0.04139536    -0.04000
C2262       C  0.08237010  0.55890464  0.03565170     0.03000
C2263       C  0.00720598  0.54522971  0.04439990     0.09800
C2264       C  0.04708451  0.52739108  0.05607460     0.35700
C2265       C  0.09375148  0.56875241  0.02856709     0.39100
C2266       C  0.99144374  0.52060360  0.04169531    -0.04400
C2267       C  0.96042861  0.52187513  0.04099308     0.02800
C2268       C  0.94493991  0.54777925  0.04308929    -0.04000
C2269       C  0.96064711  0.57123052  0.04651702    -0.00200
C2270       C  0.99175512  0.57003036  0.04708647    -0.02800
C2271       C  0.00739400  0.49428558  0.03944569     0.36500
C2272       C  0.94521166  0.59725327  0.04915771     0.40100
C2273       C  0.94454960  0.49636955  0.03813861     0.39200
C2274       C  0.00810968  0.59481626  0.05015570     0.36100
C2275       C  0.03170472  0.56486424  0.03073250     0.36800
C2276       C  0.10971802  0.53249316  0.05420268     0.40100
N2277       N  0.93192581  0.47599437  0.03586589    -0.38000
N2278       N  0.02022412  0.47330386  0.03769359    -0.39600
N2279       N  0.93300968  0.61797653  0.05133265    -0.37300
N2280       N  0.02124581  0.61452713  0.05260297    -0.39700
N2281       N  0.03733959  0.51869312  0.06157201    -0.39500
N2282       N  0.12519723  0.52634948  0.05904503    -0.37100
N2283       N  0.10279800  0.57668235  0.02292542    -0.38200
N2284       N  0.01580319  0.57114419  0.02598945    -0.39800
C2285       C  0.83967748  0.52474935  0.00167706    -0.04800
C2286       C  0.83406713  0.49421722  0.00085014     0.09400
C2287       C  0.83030364  0.47628925  0.00714854    -0.02200
C2288       C  0.83272919  0.48867463  0.01426288    -0.00400
C2289       C  0.83902198  0.51923347  0.01513736    -0.04000
C2290       C  0.84245854  0.53721224  0.00878171     0.03000
C2291       C  0.83428637  0.48042057  0.99334906     0.09800
C2292       C  0.82441377  0.44488628  0.00628481     0.35700
C2293       C  0.85073074  0.56814703  0.00949449     0.39100
C2294       C  0.86145496  0.47261904  0.99006607    -0.04400
C2295       C  0.86195720  0.45869735  0.98310383     0.02800
C2296       C  0.83511625  0.45184489  0.97943433    -0.04000
C2297       C  0.80790211  0.45983984  0.98274478    -0.00200
C2298       C  0.80755389  0.47439863  0.98963425    -0.02800
C2299       C  0.88890486  0.47848702  0.99396032     0.36500
C2300       C  0.78020187  0.45370328  0.97900226     0.40100
C2301       C  0.89017755  0.45047009  0.97988639     0.39200
C2302       C  0.77970493  0.48339493  0.99290352     0.36100
C2303       C  0.84312058  0.54320137  0.99517948     0.36800
C2304       C  0.82862146  0.46979097  0.02066431     0.40100
N2305       N  0.91275166  0.44400820  0.97734372    -0.38000
N2306       N  0.91065932  0.48320231  0.99711697    -0.39600
N2307       N  0.75812560  0.44870582  0.97601511    -0.37300
N2308       N  0.75750000  0.49069427  0.99550125    -0.39700
N2309       N  0.81969236  0.41985070  0.00558433    -0.39500
N2310       N  0.82549810  0.45468257  0.02576565    -0.37100
N2311       N  0.85757513  0.59276159  0.01004439    -0.38200
N2312       N  0.84582590  0.55786516  0.98998551    -0.39800
C2313       C  0.75654836  0.96685237  0.06243160    -0.04800
C2314       C  0.75168942  0.99672766  0.06051346     0.09400
C2315       C  0.76448287  0.00821410  0.05400121    -0.02200
C2316       C  0.78147862  0.98986581  0.04935739    -0.32400
C2317       C  0.78603060  0.95976126  0.05119743    -0.04000
C2318       C  0.77366434  0.94841292  0.05779909     0.03000
C2319       C  0.73257899  0.01621814  0.06523123     0.09800
C2320       C  0.75986744  0.03900568  0.05204336     0.35700
C2321       C  0.77933276  0.91804453  0.05996427     0.39100
C2322       C  0.74453585  0.03068758  0.07142582    -0.04400
C2323       C  0.72726455  0.05104498  0.07547405     0.02800
C2324       C  0.69678009  0.05532869  0.07381258    -0.04000
C2325       C  0.68649172  0.04382699  0.06694160    -0.00200
C2326       C  0.70369630  0.02326557  0.06293297    -0.02800
C2327       C  0.77503159  0.02524761  0.07350662     0.36500
C2328       C  0.66119690  0.05655315  0.06321730     0.40100
C2329       C  0.74215978  0.07050712  0.08063203     0.39200
C2330       C  0.69206440  0.01002802  0.05623255     0.36100
C2331       C  0.74383315  0.95511887  0.06917477     0.36800
C2332       C  0.79337878  0.00186266  0.04253731     0.40100
N2333       N  0.75461474  0.08695246  0.08441953    -0.38000
N2334       N  0.79931420  0.02079697  0.07518163    -0.39600
N2335       N  0.64128043  0.06670002  0.06011553    -0.37300
N2336       N  0.68294750  0.99947754  0.05087792    -0.39700
N2337       N  0.75606350  0.06353258  0.05047539    -0.39500
N2338       N  0.80286652  0.01139372  0.03709686    -0.37100
N2339       N  0.78395853  0.89384480  0.06170298    -0.38200
N2340       N  0.73373825  0.94578643  0.07456747    -0.39800
C2341       C  0.98304740  0.89165077  0.03855458    -0.04800
C2342       C  0.99544629  0.91772887  0.04153675     0.09400
C2343       C  0.97679378  0.94091056  0.04384091    -0.02200
C2344       C  0.94581807  0.93820041  0.04308185    -0.00400
C2345       C  0.93340880  0.91248716  0.03986008    -0.04000
C2346       C  0.95217405  0.88913393  0.03764289     0.03000
C2347       C  0.02833594  0.92112050  0.04186877     0.09800
C2348       C  0.98961613  0.96776849  0.04685305     0.35700
C2349       C  0.93972220  0.86223425  0.03453443     0.39100
C2350       C  0.04354803  0.93425464  0.03590823    -0.04400
C2351       C  0.07472601  0.93416481  0.03572008     0.02800
C2352       C  0.09092330  0.92095504  0.04152739    -0.04000
C2353       C  0.07561886  0.90931950  0.04769473    -0.00200
C2354       C  0.04438998  0.90946975  0.04786349    -0.02800
C2355       C  0.02698832  0.94714035  0.02986031     0.36500
C2356       C  0.09197963  0.89748968  0.05390429     0.40100
C2357       C  0.08996446  0.94609250  0.02931653     0.39200
C2358       C  0.02865744  0.89734988  0.05415720     0.36100
C2359       C  0.00219958  0.86746252  0.03637481     0.36800
C2360       C  0.92686337  0.96242398  0.04533343     0.40100
N2361       N  0.10213828  0.95553194  0.02420690    -0.38000
N2362       N  0.01374804  0.95748513  0.02505195    -0.39600
N2363       N  0.10504963  0.88814272  0.05886748    -0.37300
N2364       N  0.01604347  0.88778345  0.05918388    -0.39700
N2365       N  0.99991172  0.98922715  0.04922791    -0.39500
N2366       N  0.91172385  0.98173467  0.04713220    -0.37100
N2367       N  0.92977095  0.84081288  0.03204734    -0.38200
N2368       N  0.01751232  0.84815046  0.03467301    -0.39800
C2369       C  0.85427263  0.70345943  0.03660403    -0.04800
C2370       C  0.82528763  0.71475267  0.03706466     0.09400
C2371       C  0.80111686  0.69506865  0.03760988    -0.02200
C2372       C  0.80586436  0.66415213  0.03767498    -0.00400
C2373       C  0.83499694  0.65265954  0.03725506    -0.04000
C2374       C  0.85918702  0.67264943  0.03676021     0.03000
C2375       C  0.82058239  0.74757244  0.03702903     0.09800
C2376       C  0.77131389  0.70674407  0.03804141     0.35700
C2377       C  0.88937060  0.66179138  0.03667441     0.39100
C2378       C  0.82125795  0.76334099  0.03031556    -0.04400
C2379       C  0.82092327  0.79458117  0.03032495     0.02800
C2380       C  0.81962742  0.81031872  0.03707260    -0.04000
C2381       C  0.81733404  0.79438654  0.04376971    -0.00200
C2382       C  0.81792376  0.76312890  0.04374202    -0.02800
C2383       C  0.82343440  0.74731979  0.02340364     0.36500
C2384       C  0.81433402  0.81011483  0.05070148     0.40100
C2385       C  0.82406433  0.81041651  0.02340017     0.39200
C2386       C  0.81677632  0.74687852  0.05063797     0.36100
C2387       C  0.87914856  0.72373632  0.03599575     0.36800
C2388       C  0.78056717  0.64432116  0.03794647     0.40100
N2389       N  0.82673466  0.82306569  0.01788536    -0.38000
N2390       N  0.82523664  0.73451368  0.01789545    -0.39600
N2391       N  0.81186536  0.82261926  0.05623707    -0.37300
N2392       N  0.81588157  0.73379875  0.05612370    -0.39700
N2393       N  0.74755384  0.71610532  0.03839732    -0.39500
N2394       N  0.76034008  0.62855581  0.03815952    -0.37100
N2395       N  0.91349533  0.65328825  0.03661265    -0.38200
N2396       N  0.89891448  0.73996235  0.03547836    -0.39800
C2397       C  0.04816669  0.05792834  0.94833496    -0.04800
C2398       C  0.03042888  0.05187490  0.95455194     0.09400
C2399       C  0.04382710  0.04403507  0.96128496    -0.02200
C2400       C  0.07488336  0.04234658  0.96183569    -0.00400
C2401       C  0.09298501  0.04932645  0.95567594    -0.04000
C2402       C  0.07932234  0.05695232  0.94888850     0.03000
C2403       C  0.99743047  0.05337865  0.95405751     0.09800
C2404       C  0.02546490  0.03774961  0.96767285     0.35700
C2405       C  0.09707086  0.06480215  0.94250179     0.39100
C2406       C  0.98083458  0.02728364  0.95299446    -0.04400
C2407       C  0.94965058  0.02800065  0.95330945     0.02800
C2408       C  0.93471176  0.05509834  0.95458239    -0.04000
C2409       C  0.95157838  0.08151970  0.95529408    -0.00200
C2410       C  0.98278472  0.08053826  0.95510013    -0.02800
C2411       C  0.99607083  0.99952501  0.95172464     0.36500
C2412       C  0.93703290  0.10993233  0.95610775     0.40100
C2413       C  0.93325665  0.00045570  0.95266989     0.39200
C2414       C  0.99997969  0.10742445  0.95610700     0.36100
C2415       C  0.03421880  0.06520820  0.94136563     0.36800
C2416       C  0.08796066  0.03247232  0.96871592     0.40100
N2417       N  0.92028645  0.97841055  0.95217238    -0.38000
N2418       N  0.00836448  0.97746941  0.95070976    -0.39600
N2419       N  0.92554710  0.13264850  0.95675257    -0.37300
N2420       N  0.01375973  0.12881906  0.95691442    -0.39700
N2421       N  0.01072977  0.03278769  0.97275155    -0.39500
N2422       N  0.09830713  0.02449286  0.97420190    -0.37100
N2423       N  0.11111108  0.07109863  0.93738975    -0.38200
N2424       N  0.02303842  0.07093014  0.93580772    -0.39800
C2425       C  0.79629251  0.26550115  0.95202813    -0.04800
C2426       C  0.81037815  0.24696239  0.95718896     0.09400
C2427       C  0.82637289  0.25956776  0.96308679    -0.02200
C2428       C  0.82937751  0.29058629  0.96365465    -0.00400
C2429       C  0.81602197  0.30930730  0.95834983    -0.04000
C2430       C  0.79868371  0.29656165  0.95267058     0.03000
C2431       C  0.81044380  0.21408796  0.95616789     0.09800
C2432       C  0.84085996  0.24039457  0.96839027     0.35700
C2433       C  0.78284655  0.31539403  0.94754637     0.39100
C2434       C  0.83171962  0.20102518  0.95151740    -0.04400
C2435       C  0.83445951  0.16996061  0.95119083     0.02800
C2436       C  0.81630314  0.15165110  0.95567592    -0.04000
C2437       C  0.79426110  0.16488793  0.96014260    -0.00200
C2438       C  0.79108868  0.19596628  0.96028678    -0.02800
C2439       C  0.85159716  0.21976266  0.94727733     0.36500
C2440       C  0.77481831  0.14664734  0.96462692     0.40100
C2441       C  0.85722736  0.15717633  0.94653834     0.39200
C2442       C  0.76811614  0.20943492  0.96473934     0.36100
C2443       C  0.78014091  0.25252226  0.94591977     0.36800
C2444       C  0.84773103  0.30291869  0.96946090     0.40100
N2445       N  0.87539252  0.14710801  0.94280928    -0.38000
N2446       N  0.86741701  0.23483744  0.94392705    -0.39600
N2447       N  0.75943759  0.13211034  0.96824232    -0.37300
N2448       N  0.74966917  0.22017058  0.96825761    -0.39700
N2449       N  0.85236588  0.22493807  0.97258548    -0.39500
N2450       N  0.86249074  0.31255511  0.97409457    -0.37100
N2451       N  0.77007722  0.33046841  0.94349559    -0.38200
N2452       N  0.76748138  0.24215245  0.94100861    -0.39800
C2453       C  0.80925904  0.97523518  0.98663476    -0.04800
C2454       C  0.82094631  0.98974267  0.99288358     0.09400
C2455       C  0.83293677  0.01848414  0.99214754    -0.02200
C2456       C  0.83393980  0.03234870  0.98516651    -0.00400
C2457       C  0.82327741  0.01737577  0.97885578    -0.04000
C2458       C  0.81029045  0.98906069  0.97964962     0.03000
C2459       C  0.82231662  0.97402920  0.00016119     0.09800
C2460       C  0.84516639  0.03331250  0.99855540     0.35700
C2461       C  0.79727283  0.97447041  0.97330933     0.39100
C2462       C  0.84766616  0.95751235  0.00200535    -0.04400
C2463       C  0.84944785  0.94286348  0.00886627     0.02800
C2464       C  0.82583040  0.94473779  0.01399394    -0.04000
C2465       C  0.80028129  0.96112899  0.01208877    -0.00200
C2466       C  0.79863289  0.97580499  0.00521309    -0.02800
C2467       C  0.87226577  0.95619888  0.99686718     0.36500
C2468       C  0.77527908  0.96227797  0.01710479     0.40100
C2469       C  0.87622767  0.92688424  0.01072581     0.39200
C2470       C  0.77271305  0.99308858  0.00335574     0.36100
C2471       C  0.79683768  0.94574400  0.98738383     0.36800
C2472       C  0.84703730  0.06156428  0.98443652     0.40100
N2473       N  0.89760393  0.91415114  0.01219641    -0.38000
N2474       N  0.89187765  0.95534945  0.99276516    -0.39600
N2475       N  0.75531925  0.96308931  0.02110374    -0.37300
N2476       N  0.75206874  0.00697244  0.00188820    -0.39700
N2477       N  0.85503191  0.04498129  0.00367916    -0.39500
N2478       N  0.85746528  0.08488342  0.98385005    -0.37100
N2479       N  0.78654619  0.96290579  0.96828080    -0.38200
N2480       N  0.78703136  0.92217057  0.98799647    -0.39800
C2481       C  0.86205951  0.69202845  0.57627145    -0.04800
C2482       C  0.84949793  0.70884451  0.58205363     0.09400
C2483       C  0.83522180  0.69386995  0.58792694    -0.02200
C2484       C  0.83533684  0.66261050  0.58822459    -0.00400
C2485       C  0.85217829  0.64625751  0.58311135    -0.04000
C2486       C  0.86350187  0.66083126  0.57680999     0.03000
C2487       C  0.85269106  0.74209319  0.58211332     0.09800
C2488       C  0.82110689  0.71054185  0.59377553     0.35700
C2489       C  0.87703512  0.64377874  0.57093656     0.39100
C2490       C  0.82794831  0.76066398  0.58120397    -0.04400
C2491       C  0.83114340  0.79177842  0.58163536     0.02800
C2492       C  0.85967440  0.80509321  0.58221989    -0.04000
C2493       C  0.88434839  0.78618644  0.58331225    -0.00200
C2494       C  0.88071689  0.75506020  0.58333952    -0.02800
C2495       C  0.79909830  0.74774347  0.57975629     0.36500
C2496       C  0.91353535  0.79797593  0.58481735     0.40100
C2497       C  0.80464333  0.80974361  0.58212677     0.39200
C2498       C  0.90604032  0.73622065  0.58475904     0.36100
C2499       C  0.87377092  0.70695566  0.56981034     0.36800
C2500       C  0.81708626  0.64717847  0.59358226     0.40100
N2501       N  0.78351762  0.82403765  0.58259095    -0.38000
N2502       N  0.77609083  0.73746355  0.57858146    -0.39600
N2503       N  0.93714608  0.80601384  0.58628192    -0.37300
N2504       N  0.92639898  0.72146536  0.58589940    -0.39700
N2505       N  0.80978389  0.72384845  0.59843737    -0.39500
N2506       N  0.80234575  0.63482047  0.59781188    -0.37100
N2507       N  0.88790257  0.63018214  0.56625925    -0.38200
N2508       N  0.88300846  0.71898432  0.56465831    -0.39800
C2509       C  0.98183778  0.86312185  0.57808750    -0.04800
C2510       C  0.99602088  0.88427239  0.58266396     0.09400
C2511       C  0.97837698  0.90413803  0.58680402    -0.02200
C2512       C  0.94722389  0.90134752  0.58680103    -0.00400
C2513       C  0.93331496  0.88028564  0.58222681    -0.04000
C2514       C  0.95068122  0.86242802  0.57755041     0.03000
C2515       C  0.02938205  0.88555557  0.58310615     0.09800
C2516       C  0.99220672  0.92789720  0.59094402     0.35700
C2517       C  0.93645830  0.84356222  0.57211873     0.39100
C2518       C  0.04650987  0.89158495  0.57676623    -0.04400
C2519       C  0.07765989  0.88886608  0.57695658     0.02800
C2520       C  0.09278659  0.88516875  0.58378804    -0.04000
C2521       C  0.07524205  0.88200889  0.59028001    -0.00200
C2522       C  0.04404693  0.88006747  0.58983214    -0.02800
C2523       C  0.03202118  0.90095615  0.57002063     0.36500
C2524       C  0.08839384  0.88150361  0.59755473     0.40100
C2525       C  0.09339259  0.88790962  0.56998487     0.39200
C2526       C  0.02700023  0.87214176  0.59634491     0.36100
C2527       C  0.99920698  0.84170100  0.57400470     0.36800
C2528       C  0.92933620  0.92067867  0.59136043     0.40100
N2529       N  0.10569402  0.88704965  0.56438626    -0.38000
N2530       N  0.02040597  0.90866476  0.56467221    -0.39600
N2531       N  0.09766797  0.88064185  0.60349320    -0.37300
N2532       N  0.01347410  0.86588935  0.60154465    -0.39700
N2533       N  0.00323177  0.94687155  0.59424533    -0.39500
N2534       N  0.91497262  0.93605369  0.59498790    -0.37100
N2535       N  0.92507192  0.82861071  0.56777635    -0.38200
N2536       N  0.01307235  0.82465758  0.57073655    -0.39800
C2537       C  0.97646078  0.54811596  0.58519970    -0.04800
C2538       C  0.99323250  0.57379714  0.58375936     0.09400
C2539       C  0.97875090  0.60113212  0.58292520    -0.02200
C2540       C  0.94761422  0.60283926  0.58343324    -0.00400
C2541       C  0.93041412  0.57699679  0.58469776    -0.04000
C2542       C  0.94538200  0.54984384  0.58590380     0.03000
C2543       C  0.02639093  0.57271680  0.58365390     0.09800
C2544       C  0.99614190  0.62769946  0.58159099     0.35700
C2545       C  0.92942841  0.52415415  0.58858936     0.39100
C2546       C  0.04188255  0.57328240  0.57691197    -0.04400
C2547       C  0.07311069  0.57489799  0.57683603     0.02800
C2548       C  0.08931959  0.57567078  0.58355955    -0.04000
C2549       C  0.07346673  0.57476212  0.59031264    -0.00200
C2550       C  0.04224010  0.57343036  0.59033825    -0.02800
C2551       C  0.02546661  0.57321621  0.57003773     0.36500
C2552       C  0.08878310  0.57499248  0.59732311     0.40100
C2553       C  0.08814979  0.57827721  0.56980541     0.39200
C2554       C  0.02618943  0.57354217  0.59728060     0.36100
C2555       C  0.99127054  0.51983858  0.58597337     0.36800
C2556       C  0.93407920  0.63168663  0.58294275     0.40100
N2557       N  0.10005329  0.58119352  0.56419517    -0.38000
N2558       N  0.01227910  0.57332972  0.56456992    -0.39600
N2559       N  0.09988203  0.57539642  0.60306739    -0.37300
N2560       N  0.01334198  0.57369359  0.60280520    -0.39700
N2561       N  0.01005413  0.64880854  0.58050149    -0.39500
N2562       N  0.92477245  0.65546992  0.58275999    -0.37100
N2563       N  0.91755405  0.50346570  0.59092933    -0.38200
N2564       N  0.00296932  0.49720580  0.58654256    -0.39800
C2565       C  0.16223965  0.76458705  0.57539354    -0.04800
C2566       C  0.16042984  0.74661539  0.58170207     0.09400
C2567       C  0.15703669  0.75979189  0.58866661    -0.02200
C2568       C  0.15581351  0.79090545  0.58939132    -0.00400
C2569       C  0.15943775  0.80967506  0.58310435    -0.04000
C2570       C  0.16116038  0.79577516  0.57603435     0.03000
C2571       C  0.16053604  0.71353971  0.58105169     0.09800
C2572       C  0.15473503  0.74105538  0.59516452     0.35700
C2573       C  0.15991157  0.81304028  0.56929151     0.39100
C2574       C  0.18684410  0.69761910  0.58222471    -0.04400
C2575       C  0.18621637  0.66640161  0.58258907     0.02800
C2576       C  0.15940362  0.65070183  0.58142090    -0.04000
C2577       C  0.13328475  0.66683974  0.57995668    -0.00200
C2578       C  0.13381509  0.69809637  0.57987848    -0.02800
C2579       C  0.21441620  0.71355891  0.58331041     0.36500
C2580       C  0.10560339  0.65176474  0.57852451     0.40100
C2581       C  0.21236200  0.65094740  0.58511770     0.39200
C2582       C  0.10665175  0.71453860  0.57876217     0.36100
C2583       C  0.16527687  0.75075429  0.56820942     0.36800
C2584       C  0.14941039  0.80232056  0.59667337     0.40100
N2585       N  0.23312131  0.63927255  0.58743080    -0.38000
N2586       N  0.23637573  0.72636875  0.58414649    -0.39600
N2587       N  0.08281101  0.64112986  0.57732565    -0.37300
N2588       N  0.08498731  0.72766322  0.57789658    -0.39700
N2589       N  0.15298945  0.72638836  0.60038111    -0.39500
N2590       N  0.14315258  0.80983713  0.60257477    -0.37100
N2591       N  0.15915754  0.82657800  0.56387303    -0.38200
N2592       N  0.16778417  0.73958815  0.56250032    -0.39800
C2593       C  0.13983032  0.88210239  0.62870706    -0.04800
C2594       C  0.16765805  0.88462450  0.62523145     0.09400
C2595       C  0.19346703  0.88519303  0.62959012    -0.02200
C2596       C  0.19147765  0.88264198  0.63732597    -0.00400
C2597       C  0.16353603  0.88271607  0.64091808    -0.04000
C2598       C  0.13764016  0.88190504  0.63648228     0.03000
C2599       C  0.16972545  0.88542140  0.61696801     0.09800
C2600       C  0.22227933  0.88810046  0.62610922     0.35700
C2601       C  0.10844254  0.88015974  0.63972467     0.39100
C2602       C  0.15842011  0.90981456  0.61298024    -0.04400
C2603       C  0.15794418  0.90919075  0.60520012     0.02800
C2604       C  0.16948520  0.88457094  0.60138213    -0.04000
C2605       C  0.18452591  0.86244353  0.60532937    -0.00200
C2606       C  0.18277067  0.86165142  0.61308087    -0.02800
C2607       C  0.14660639  0.93520960  0.61687915     0.36500
C2608       C  0.20300508  0.84142249  0.60142941     0.40100
C2609       C  0.14537060  0.93375571  0.60112954     0.39200
C2610       C  0.19311406  0.83571755  0.61701065     0.36100
C2611       C  0.11329685  0.87911787  0.62424856     0.36800
C2612       C  0.21837375  0.87729603  0.64145941     0.40100
N2613       N  0.13533682  0.95342692  0.59791174    -0.38000
N2614       N  0.13696888  0.95538327  0.61998224    -0.39600
N2615       N  0.21801767  0.82491704  0.59830863    -0.37300
N2616       N  0.20108704  0.81492097  0.62015178    -0.39700
N2617       N  0.24529548  0.89026428  0.62335405    -0.39500
N2618       N  0.24007064  0.87248600  0.64461055    -0.37100
N2619       N  0.08470273  0.87783951  0.64204095    -0.38200
N2620       N  0.09209931  0.87672859  0.62072155    -0.39800
C2621       C  0.83780768  0.86829215  0.62750372    -0.04800
C2622       C  0.85701332  0.88611423  0.62318930     0.09400
C2623       C  0.87681741  0.90573440  0.62677129    -0.02200
C2624       C  0.87724454  0.90746182  0.63454008    -0.00400
C2625       C  0.86033342  0.88740942  0.63878377    -0.04000
C2626       C  0.84009997  0.86832871  0.63526223     0.03000
C2627       C  0.85617076  0.88425807  0.61489920     0.09800
C2628       C  0.89709515  0.92383427  0.62248673     0.35700
C2629       C  0.82096972  0.84940372  0.63964631     0.39100
C2630       C  0.84687707  0.90859496  0.61063870    -0.04400
C2631       C  0.84745873  0.90725669  0.60283031     0.02800
C2632       C  0.85486974  0.88036911  0.59912153    -0.04000
C2633       C  0.86014928  0.85501862  0.60359128    -0.00200
C2634       C  0.86331935  0.85761300  0.61130399    -0.02800
C2635       C  0.83630942  0.93508031  0.61433609     0.36500
C2636       C  0.85886818  0.82538273  0.60057520     0.40100
C2637       C  0.83968180  0.93391881  0.59887639     0.39200
C2638       C  0.87372589  0.83248726  0.61557139     0.36100
C2639       C  0.81541474  0.85014657  0.62396103     0.36800
C2640       C  0.89482647  0.93009625  0.63817919     0.40100
N2641       N  0.83245571  0.95583495  0.59612525    -0.38000
N2642       N  0.82789396  0.95611399  0.61730394    -0.39600
N2643       N  0.85729731  0.80104684  0.59863355    -0.37300
N2644       N  0.88194206  0.81246452  0.61897596    -0.39700
N2645       N  0.91324370  0.93832765  0.61907405    -0.39500
N2646       N  0.90877432  0.94813407  0.64110294    -0.37100
N2647       N  0.80557590  0.83440383  0.64313491    -0.38200
N2648       N  0.79763893  0.83561375  0.62111964    -0.39800
C2649       C  0.98579593  0.88939980  0.65128528    -0.04800
C2650       C  0.99859677  0.89398480  0.65828423     0.09400
C2651       C  0.98014667  0.89700923  0.66450168    -0.02200
C2652       C  0.94922638  0.89420918  0.66378184    -0.00400
C2653       C  0.93594347  0.89158854  0.65669011    -0.04000
C2654       C  0.95474604  0.88847084  0.65045531     0.03000
C2655       C  0.03155093  0.89323969  0.65916970     0.09800
C2656       C  0.99308684  0.90262277  0.67169713     0.35700
C2657       C  0.94304772  0.88194243  0.64320482     0.39100
C2658       C  0.04942033  0.91592862  0.65613995    -0.04400
C2659       C  0.08049411  0.91318437  0.65620972     0.02800
C2660       C  0.09376845  0.88864045  0.65969822    -0.04000
C2661       C  0.07605512  0.86852519  0.66366488    -0.00200
C2662       C  0.04507395  0.86944563  0.66294265    -0.02800
C2663       C  0.03580693  0.94184909  0.65288400     0.36500
C2664       C  0.08965267  0.84777996  0.66872943     0.40100
C2665       C  0.09879315  0.93517771  0.65254420     0.39200
C2666       C  0.02727597  0.84525135  0.66580788     0.36100
C2667       C  0.00464212  0.88473570  0.64490205     0.36800
C2668       C  0.93165005  0.89089726  0.67044458     0.40100
N2669       N  0.11348080  0.95254902  0.64958618    -0.38000
N2670       N  0.02491378  0.96256118  0.65030797    -0.39600
N2671       N  0.10047933  0.83140484  0.67281981    -0.37300
N2672       N  0.01304432  0.82584275  0.66802559    -0.39700
N2673       N  0.00343377  0.90707137  0.67742861    -0.39500
N2674       N  0.91773770  0.88800450  0.67576160    -0.37100
N2675       N  0.93523070  0.87561460  0.63733583    -0.38200
N2676       N  0.01924112  0.88105542  0.63974055    -0.39800
C2677       C  0.19835459  0.57701891  0.62846709    -0.04800
C2678       C  0.17185548  0.58067174  0.62451845     0.09400
C2679       C  0.14521437  0.58474707  0.62838351    -0.02200
C2680       C  0.14483287  0.58510726  0.63618080    -0.00400
C2681       C  0.17125459  0.57995657  0.64029915    -0.04000
C2682       C  0.19821805  0.57676240  0.63627543     0.03000
C2683       C  0.17180576  0.58110243  0.61623633     0.09800
C2684       C  0.11799538  0.58905345  0.62425693     0.35700
C2685       C  0.22645767  0.57647269  0.64007142     0.39100
C2686       C  0.16937082  0.55445677  0.61226495    -0.04400
C2687       C  0.16663992  0.55485185  0.60450259     0.02800
C2688       C  0.16666852  0.58209731  0.60057055    -0.04000
C2689       C  0.16901142  0.60881959  0.60464066    -0.00200
C2690       C  0.17188481  0.60823632  0.61240521    -0.02800
C2691       C  0.16896347  0.52656097  0.61623494     0.36500
C2692       C  0.16802087  0.63726189  0.60099775     0.40100
C2693       C  0.16158525  0.52709366  0.60069608     0.39200
C2694       C  0.17471934  0.63569446  0.61650749     0.36100
C2695       C  0.22600181  0.57452375  0.62444455     0.36800
C2696       C  0.11705259  0.59248942  0.63968880     0.40100
N2697       N  0.15745441  0.50466030  0.59779606    -0.38000
N2698       N  0.16868782  0.50439172  0.61943466    -0.39600
N2699       N  0.16674118  0.66063883  0.59842737    -0.37300
N2700       N  0.17703344  0.65758763  0.61977260    -0.39700
N2701       N  0.09635747  0.59251489  0.62096454    -0.39500
N2702       N  0.09444491  0.59968180  0.64208371    -0.37100
N2703       N  0.24910488  0.57648101  0.64304415    -0.38200
N2704       N  0.24802015  0.57267998  0.62121661    -0.39800
C2705       C  0.17676051  0.69940326  0.66470202    -0.04800
C2706       C  0.17669361  0.71498271  0.65796876     0.09400
C2707       C  0.18004211  0.69937714  0.65130958    -0.02200
C2708       C  0.18187687  0.66818520  0.65133450    -0.00400
C2709       C  0.18031621  0.65212651  0.65805322    -0.04000
C2710       C  0.17931030  0.66821358  0.66477482     0.03000
C2711       C  0.17319632  0.74798853  0.65788196     0.09800
C2712       C  0.18170657  0.71559767  0.64440340     0.35700
C2713       C  0.18106746  0.65304681  0.67180519     0.39100
C2714       C  0.19820571  0.76655280  0.65788772    -0.04400
C2715       C  0.19495940  0.79766170  0.65793441     0.02800
C2716       C  0.16632321  0.81087774  0.65803487    -0.04000
C2717       C  0.14126174  0.79164601  0.65745082    -0.00200
C2718       C  0.14483289  0.76053858  0.65752649    -0.02800
C2719       C  0.22746386  0.75342494  0.65770673     0.36500
C2720       C  0.11153623  0.80269850  0.65643864     0.40100
C2721       C  0.22154171  0.81566109  0.65749462     0.39200
C2722       C  0.11916365  0.74112553  0.65711970     0.36100
C2723       C  0.17376990  0.71562390  0.67156260     0.36800
C2724       C  0.18723472  0.65329454  0.64439928     0.40100
N2725       N  0.24302551  0.82963471  0.65723241    -0.38000
N2726       N  0.25074942  0.74288441  0.65751144    -0.39600
N2727       N  0.08739367  0.80986514  0.65531301    -0.37300
N2728       N  0.09874191  0.72565601  0.65678152    -0.39700
N2729       N  0.18319130  0.72851757  0.63890131    -0.39500
N2730       N  0.19203084  0.64313048  0.63867194    -0.37100
N2731       N  0.18284759  0.64114781  0.67744237    -0.38200
N2732       N  0.17124050  0.72868687  0.67701452    -0.39800
C2733       C  0.84119360  0.57787842  0.63136292    -0.04800
C2734       C  0.86703475  0.57389876  0.62712614     0.09400
C2735       C  0.89450446  0.57080891  0.63071356    -0.02200
C2736       C  0.89629895  0.57250746  0.63848401    -0.00400
C2737       C  0.87067150  0.57822707  0.64275591    -0.04000
C2738       C  0.84293775  0.58033691  0.63912320     0.03000
C2739       C  0.86559914  0.57495808  0.61884932     0.09800
C2740       C  0.92108373  0.56631476  0.62636459     0.35700
C2741       C  0.81633090  0.58708362  0.64326950     0.39100
C2742       C  0.86701751  0.60238097  0.61520154    -0.04400
C2743       C  0.86650537  0.60389715  0.60740819     0.02800
C2744       C  0.86308889  0.57772744  0.60306813    -0.04000
C2745       C  0.86264841  0.54998869  0.60687844    -0.00200
C2746       C  0.86365044  0.54880507  0.61468105    -0.02800
C2747       C  0.86897943  0.62934542  0.61954555     0.36500
C2748       C  0.86256171  0.52214853  0.60289393     0.40100
C2749       C  0.87055437  0.63282297  0.60412387     0.39200
C2750       C  0.86260391  0.52052291  0.61847955     0.36100
C2751       C  0.81282747  0.58014942  0.62767771     0.36800
C2752       C  0.92458811  0.56739647  0.64200377     0.40100
N2753       N  0.87492940  0.65641678  0.60187061    -0.38000
N2754       N  0.87038050  0.65086375  0.62298937    -0.39600
N2755       N  0.86209364  0.49966396  0.59983622    -0.37300
N2756       N  0.86173176  0.49801847  0.62152611    -0.39700
N2757       N  0.94229067  0.56277123  0.62289755    -0.39500
N2758       N  0.94756135  0.56289185  0.64456886    -0.37100
N2759       N  0.79510664  0.59257831  0.64656542    -0.38200
N2760       N  0.79024266  0.58187378  0.62471057    -0.39800
C2761       C  0.86350153  0.70601426  0.65236963    -0.04800
C2762       C  0.86981598  0.72214501  0.65884240     0.09400
C2763       C  0.87881058  0.70690635  0.66524448    -0.02200
C2764       C  0.88100405  0.67572102  0.66520701    -0.00400
C2765       C  0.87339917  0.65932810  0.65881616    -0.04000
C2766       C  0.86546634  0.67477287  0.65233454     0.03000
C2767       C  0.86868406  0.75539371  0.65878571     0.09800
C2768       C  0.88598249  0.72346485  0.67186313     0.35700
C2769       C  0.85950200  0.65886862  0.64557510     0.39100
C2770       C  0.84190098  0.77036778  0.65999990    -0.04400
C2771       C  0.84075345  0.80171060  0.65971764     0.02800
C2772       C  0.86679566  0.81878769  0.65833233    -0.04000
C2773       C  0.89405089  0.80312319  0.65764614    -0.00200
C2774       C  0.89468026  0.77182891  0.65762673    -0.02800
C2775       C  0.81537467  0.75325151  0.66155247     0.36500
C2776       C  0.92233512  0.81816003  0.65749424     0.40100
C2777       C  0.81236510  0.81556978  0.66091883     0.39200
C2778       C  0.92236400  0.75624020  0.65642900     0.36100
C2779       C  0.85502360  0.72173784  0.64572661     0.36800
C2780       C  0.89313238  0.66068756  0.67158927     0.40100
N2781       N  0.78920978  0.82531778  0.66209136    -0.38000
N2782       N  0.79429026  0.73954221  0.66281313    -0.39600
N2783       N  0.94610895  0.82768880  0.65743857    -0.37300
N2784       N  0.94434463  0.74375425  0.65546241    -0.39700
N2785       N  0.89165422  0.73678214  0.67713002    -0.39500
N2786       N  0.90336352  0.64886369  0.67663800    -0.37100
N2787       N  0.85493948  0.64707197  0.64003250    -0.38200
N2788       N  0.84821577  0.73436854  0.64044339    -0.39800
C2789       C  0.99126874  0.55826614  0.66247518    -0.04800
C2790       C  0.00864528  0.58268680  0.66029551     0.09400
C2791       C  0.99449082  0.60906193  0.65812276    -0.02200
C2792       C  0.96336828  0.61164910  0.65854145    -0.00400
C2793       C  0.94548650  0.58672859  0.66039397    -0.04000
C2794       C  0.96007448  0.55963515  0.66211070     0.03000
C2795       C  0.04190208  0.58099556  0.66037991     0.09800
C2796       C  0.01213803  0.63368210  0.65539008     0.35700
C2797       C  0.94364852  0.53228779  0.66306494     0.39100
C2798       C  0.05719978  0.56209536  0.65547595    -0.04400
C2799       C  0.08845535  0.56135537  0.65550121     0.02800
C2800       C  0.10465362  0.58174832  0.65983410    -0.04000
C2801       C  0.08940883  0.60018251  0.66481593    -0.00200
C2802       C  0.05827228  0.59894722  0.66529165    -0.02800
C2803       C  0.04084053  0.54406232  0.65025359     0.36500
C2804       C  0.10548904  0.62045190  0.66951621     0.40100
C2805       C  0.10392713  0.53995861  0.65095482     0.39200
C2806       C  0.04300122  0.61604293  0.67089104     0.36100
C2807       C  0.00556940  0.53158021  0.66513699     0.36800
C2808       C  0.95056106  0.64052174  0.65722403     0.40100
N2809       N  0.11619355  0.52291911  0.64730799    -0.38000
N2810       N  0.02771826  0.52972191  0.64609095    -0.39600
N2811       N  0.11728013  0.63703282  0.67338562    -0.37300
N2812       N  0.03082802  0.62957318  0.67537533    -0.39700
N2813       N  0.02626507  0.65322385  0.65320288    -0.39500
N2814       N  0.94141190  0.66395707  0.65606443    -0.37100
N2815       N  0.93132013  0.51001921  0.66384361    -0.38200
N2816       N  0.01698211  0.51033654  0.66726498    -0.39800
C2817       C  0.21538696  0.50029102  0.67322329    -0.04800
C2818       C  0.24285570  0.51070962  0.67584581     0.09400
C2819       C  0.25491976  0.53666376  0.67274438    -0.02200
C2820       C  0.23888043  0.55305875  0.66742941    -0.00400
C2821       C  0.20898072  0.54555307  0.66569379    -0.04000
C2822       C  0.19898245  0.51700597  0.66802205     0.03000
C2823       C  0.26026229  0.49315696  0.68143794     0.09800
C2824       C  0.28424554  0.54627163  0.67497292     0.35700
C2825       C  0.17309060  0.50344312  0.66470543     0.39100
C2826       C  0.27828731  0.46941757  0.67914694    -0.04400
C2827       C  0.29507405  0.45321408  0.68434286     0.02800
C2828       C  0.29411119  0.46054498  0.69194949    -0.04000
C2829       C  0.27619266  0.48464395  0.69421697    -0.00200
C2830       C  0.25932658  0.50069750  0.68899175    -0.02800
C2831       C  0.27977158  0.46186829  0.67138213     0.36500
C2832       C  0.27439162  0.49265043  0.70195373     0.40100
C2833       C  0.31423284  0.42967593  0.68176442     0.39200
C2834       C  0.24072405  0.52495704  0.69139004     0.36100
C2835       C  0.20413984  0.47208930  0.67586573     0.36800
C2836       C  0.25466901  0.57544867  0.66324377     0.40100
N2837       N  0.32957202  0.41094130  0.67970891    -0.38000
N2838       N  0.28092032  0.45587152  0.66518427    -0.39600
N2839       N  0.27299299  0.49912460  0.70812083    -0.37300
N2840       N  0.22585049  0.54429660  0.69330268    -0.39700
N2841       N  0.30759172  0.55388756  0.67679582    -0.39500
N2842       N  0.26755246  0.59319282  0.65992255    -0.37100
N2843       N  0.15251406  0.49234877  0.66208349    -0.38200
N2844       N  0.19536091  0.44953670  0.67798439    -0.39800
C2845       C  0.28055441  0.38886978  0.74059744    -0.04800
C2846       C  0.27298687  0.41615856  0.74384238     0.09400
C2847       C  0.28023743  0.44282164  0.74020360    -0.02200
C2848       C  0.29412142  0.44221765  0.73322047    -0.00400
C2849       C  0.30048573  0.41481352  0.72978225    -0.04000
C2850       C  0.29396841  0.38811563  0.73357500     0.03000
C2851       C  0.25719419  0.41666932  0.75110664     0.09800
C2852       C  0.27343270  0.47088676  0.74368621     0.35700
C2853       C  0.30201290  0.35974821  0.73039935     0.39100
C2854       C  0.27319411  0.42067664  0.75769627    -0.04400
C2855       C  0.25840785  0.42039292  0.76455789     0.02800
C2856       C  0.22748454  0.41508064  0.76490851    -0.04000
C2857       C  0.21146741  0.41142475  0.75824794    -0.00200
C2858       C  0.22628491  0.41242350  0.75138871    -0.02800
C2859       C  0.30504938  0.42458022  0.75739440     0.36500
C2860       C  0.17990866  0.40547686  0.75840159     0.40100
C2861       C  0.27505355  0.42656382  0.77122395     0.39200
C2862       C  0.20981832  0.40863146  0.74458469     0.36100
C2863       C  0.27514050  0.36154958  0.74459694     0.36800
C2864       C  0.30116335  0.46987208  0.72953631     0.40100
N2865       N  0.28836080  0.43168724  0.77652549    -0.38000
N2866       N  0.33046922  0.42755313  0.75711903    -0.39600
N2867       N  0.15473330  0.40070347  0.75849250    -0.37300
N2868       N  0.19676573  0.40559598  0.73914737    -0.39700
N2869       N  0.26810359  0.49322749  0.74650304    -0.39500
N2870       N  0.30686179  0.49198764  0.72662951    -0.37100
N2871       N  0.30843373  0.33714995  0.72786294    -0.38200
N2872       N  0.27104381  0.33980709  0.74782346    -0.39800
C2873       C  0.97927216  0.40461999  0.78491160    -0.04800
C2874       C  0.99275593  0.42431432  0.78994126     0.09400
C2875       C  0.97491043  0.44263378  0.79439558    -0.02200
C2876       C  0.94371464  0.44105386  0.79388286    -0.00400
C2877       C  0.93015864  0.42128329  0.78885173    -0.04000
C2878       C  0.94817770  0.40300171  0.78438258     0.03000
C2879       C  0.02584936  0.42506666  0.79056544     0.09800
C2880       C  0.98875231  0.46315732  0.79948834     0.35700
C2881       C  0.93479471  0.38146119  0.77945406     0.39100
C2882       C  0.04243339  0.44683814  0.78679793    -0.04400
C2883       C  0.07357922  0.44474877  0.78642373     0.02800
C2884       C  0.08843081  0.42091203  0.78986735    -0.04000
C2885       C  0.07182988  0.40040187  0.79412421    -0.00200
C2886       C  0.04069543  0.40258179  0.79447555    -0.02800
C2887       C  0.02735860  0.47139011  0.78329930     0.36500
C2888       C  0.08644239  0.37614469  0.79787858     0.40100
C2889       C  0.09034110  0.46750770  0.78260077     0.39200
C2890       C  0.02373647  0.38148810  0.79880779     0.36100
C2891       C  0.99752522  0.38587142  0.78027911     0.36800
C2892       C  0.92564204  0.46027100  0.79842157     0.40100
N2893       N  0.10374643  0.48570183  0.77957256    -0.38000
N2894       N  0.01532309  0.49116452  0.78058791    -0.39600
N2895       N  0.09800554  0.35677986  0.80088877    -0.37300
N2896       N  0.01014539  0.36480144  0.80228843    -0.39700
N2897       N  0.99989017  0.47963442  0.80351569    -0.39500
N2898       N  0.91121863  0.47560588  0.80204648    -0.37100
N2899       N  0.92410910  0.36421705  0.77554902    -0.38200
N2900       N  0.01209367  0.37091609  0.77659220    -0.39800
C2901       C  0.75515308  0.50620602  0.68331018    -0.04800
C2902       C  0.78619398  0.50344868  0.68387280     0.09400
C2903       C  0.79820987  0.48227534  0.68874576    -0.02200
C2904       C  0.77940726  0.46338599  0.69284066    -0.00400
C2905       C  0.74827176  0.46589935  0.69223803    -0.04000
C2906       C  0.73625947  0.48759748  0.68748528     0.03000
C2907       C  0.80629160  0.52211975  0.67913549     0.09800
C2908       C  0.83004821  0.48014592  0.68959786     0.35700
C2909       C  0.70445476  0.48999826  0.68663915     0.39100
C2910       C  0.81195016  0.55191193  0.68092353    -0.04400
C2911       C  0.83066885  0.56953153  0.67641048     0.02800
C2912       C  0.84279402  0.55795735  0.66971504    -0.04000
C2913       C  0.83986696  0.52672865  0.66858552    -0.00200
C2914       C  0.82087966  0.50945412  0.67306017    -0.02800
C2915       C  0.79900127  0.56419186  0.68758406     0.36500
C2916       C  0.85707377  0.51146318  0.66300598     0.40100
C2917       C  0.83938139  0.59820258  0.67925525     0.39200
C2918       C  0.81627970  0.47831779  0.67140600     0.36100
C2919       C  0.74268903  0.52805922  0.67835619     0.36800
C2920       C  0.79225274  0.44181643  0.69782458     0.40100
N2921       N  0.84574892  0.62092471  0.68174949    -0.38000
N2922       N  0.78864769  0.57388861  0.69289668    -0.39600
N2923       N  0.87028958  0.49892362  0.65852481    -0.37300
N2924       N  0.81262482  0.45349011  0.67011190    -0.39700
N2925       N  0.85543970  0.47844793  0.69028456    -0.39500
N2926       N  0.80244555  0.42454977  0.70178773    -0.37100
N2927       N  0.67907953  0.49185861  0.68593767    -0.38200
N2928       N  0.73283242  0.54561076  0.67441953    -0.39800
C2929       C  0.48835225  0.41484429  0.71308514    -0.04800
C2930       C  0.50260322  0.42631650  0.70677473     0.09400
C2931       C  0.48553176  0.43706605  0.70085103    -0.02200
C2932       C  0.45432330  0.43585587  0.70116115    -0.00400
C2933       C  0.43991423  0.42339639  0.70736837    -0.04000
C2934       C  0.45717497  0.41298559  0.71335270     0.03000
C2935       C  0.53565500  0.42518983  0.70615547     0.09800
C2936       C  0.50025140  0.44888703  0.69437287     0.35700
C2937       C  0.44309560  0.39849476  0.71958948     0.39100
C2938       C  0.54924941  0.40042936  0.70287622    -0.04400
C2939       C  0.58037499  0.39881352  0.70235714     0.02800
C2940       C  0.59833854  0.42197907  0.70519678    -0.04000
C2941       C  0.58446863  0.44701081  0.70840200    -0.00200
C2942       C  0.55328793  0.44854343  0.70886919    -0.02800
C2943       C  0.53101776  0.37622815  0.70018510     0.36500
C2944       C  0.60211890  0.47155858  0.71112330     0.40100
C2945       C  0.59369292  0.37254458  0.69918341     0.39200
C2946       C  0.53921871  0.47406432  0.71220319     0.36100
C2947       C  0.50592244  0.40426560  0.71923303     0.36800
C2948       C  0.43710654  0.44773397  0.69510581     0.40100
N2949       N  0.60418710  0.35154552  0.69664422    -0.38000
N2950       N  0.51634081  0.35697762  0.69807515    -0.39600
N2951       N  0.61612580  0.49117860  0.71330529    -0.37300
N2952       N  0.52793867  0.49438463  0.71486900    -0.39700
N2953       N  0.51213933  0.45819409  0.68920904    -0.39500
N2954       N  0.42337518  0.45724370  0.69027550    -0.37100
N2955       N  0.43190668  0.38669185  0.72453200    -0.38200
N2956       N  0.51998229  0.39593249  0.72413943    -0.39800
C2957       C  0.77288724  0.39988939  0.73717668    -0.04800
C2958       C  0.76165922  0.41980904  0.74246336     0.09400
C2959       C  0.73886265  0.43946927  0.74047557    -0.02200
C2960       C  0.72677632  0.43879595  0.73330079    -0.00400
C2961       C  0.73746121  0.41836192  0.72798688    -0.04000
C2962       C  0.76109661  0.39926449  0.72996535     0.03000
C2963       C  0.77333660  0.41962538  0.75020627     0.09800
C2964       C  0.72761195  0.46026581  0.74588739     0.35700
C2965       C  0.77289924  0.37811130  0.72471431     0.39100
C2966       C  0.80131810  0.43196302  0.75180794    -0.04400
C2967       C  0.81252298  0.43123051  0.75907506     0.02800
C2968       C  0.79554210  0.41852639  0.76485777    -0.04000
C2969       C  0.76702077  0.40706724  0.76324985    -0.00200
C2970       C  0.75620606  0.40728284  0.75595302    -0.02800
C2971       C  0.81862964  0.44539026  0.74594254     0.36500
C2972       C  0.74821920  0.39580175  0.76911585     0.40100
C2973       C  0.84200508  0.44270101  0.76048996     0.39200
C2974       C  0.72734530  0.39469121  0.75433354     0.36100
C2975       C  0.79615174  0.37941231  0.73923356     0.36800
C2976       C  0.70363034  0.45965590  0.73142461     0.40100
N2977       N  0.86552812  0.45186648  0.76160203    -0.38000
N2978       N  0.83243943  0.45605294  0.74125842    -0.39600
N2979       N  0.73313502  0.38691106  0.77378617    -0.37300
N2980       N  0.70428762  0.38478998  0.75302912    -0.39700
N2981       N  0.71858621  0.47665321  0.75024027    -0.39500
N2982       N  0.68513820  0.47632823  0.72997424    -0.37100
N2983       N  0.78248060  0.36126861  0.72054457    -0.38200
N2984       N  0.81471357  0.36309613  0.74086676    -0.39800
C2985       C  0.84424877  0.20001266  0.79327379    -0.04800
C2986       C  0.81946639  0.21668437  0.79107850     0.09400
C2987       C  0.79338710  0.20204538  0.78884208    -0.02200
C2988       C  0.79229510  0.17083549  0.78860925    -0.00400
C2989       C  0.81766489  0.15395966  0.79041413    -0.04000
C2990       C  0.84362477  0.16881873  0.79281162     0.03000
C2991       C  0.82163099  0.24968703  0.79054728     0.09800
C2992       C  0.76785025  0.21927398  0.78663019     0.35700
C2993       C  0.87046177  0.15235142  0.79431887     0.39100
C2994       C  0.82748637  0.26300195  0.78365803    -0.04400
C2995       C  0.82955284  0.29404310  0.78305721     0.02800
C2996       C  0.82648536  0.31206756  0.78939786    -0.04000
C2997       C  0.82071301  0.29863502  0.79631035    -0.00200
C2998       C  0.81799276  0.26755735  0.79685752    -0.02800
C2999       C  0.83136691  0.24460913  0.77716888     0.36500
C3000       C  0.81861600  0.31661212  0.80291815     0.40100
C3001       C  0.83371914  0.30736505  0.77583979     0.39200
C3002       C  0.81139338  0.25387990  0.80390881     0.36100
C3003       C  0.87070607  0.21512511  0.79582580     0.36800
C3004       C  0.76486083  0.15623421  0.78656640     0.40100
N3005       N  0.83689843  0.31796426  0.77007866    -0.38000
N3006       N  0.83443857  0.22986510  0.77200816    -0.39600
N3007       N  0.81706602  0.33095595  0.80819183    -0.37300
N3008       N  0.80606402  0.24295676  0.80953199    -0.39700
N3009       N  0.74761467  0.23312811  0.78482878    -0.39500
N3010       N  0.74291654  0.14467547  0.78494690    -0.37100
N3011       N  0.89198625  0.13931999  0.79545598    -0.38200
N3012       N  0.89168351  0.22725555  0.79791112    -0.39800
C3013       C  0.78196369  0.93370700  0.66943771    -0.04800
C3014       C  0.79308466  0.95844860  0.67325735     0.09400
C3015       C  0.82152285  0.96918405  0.67152535    -0.02200
C3016       C  0.83964616  0.95381903  0.66646308    -0.00400
C3017       C  0.83070521  0.92563156  0.66367752    -0.04000
C3018       C  0.80026247  0.91807968  0.66447291     0.03000
C3019       C  0.77431281  0.97419527  0.67882886     0.09800
C3020       C  0.83182551  0.99661286  0.67482487     0.35700
C3021       C  0.78670083  0.89668611  0.65956438     0.39100
C3022       C  0.77577312  0.96605758  0.68632476    -0.04400
C3023       C  0.75898986  0.98142944  0.69165908     0.02800
C3024       C  0.74017882  0.00494926  0.68952056    -0.04000
C3025       C  0.73855897  0.01281968  0.68195274    -0.00200
C3026       C  0.75560341  0.99752689  0.67665097    -0.02800
C3027       C  0.79486149  0.94189012  0.68853766     0.36500
C3028       C  0.71890473  0.03624021  0.67954535     0.40100
C3029       C  0.76228920  0.97382271  0.69938766     0.39200
C3030       C  0.75393891  0.00574860  0.66892596     0.36100
C3031       C  0.75144344  0.92467427  0.67053287     0.36800
C3032       C  0.86455952  0.96970034  0.66331561     0.40100
N3033       N  0.76506593  0.96783287  0.70555492    -0.38000
N3034       N  0.81008893  0.92255352  0.69026384    -0.39600
N3035       N  0.70327708  0.05493665  0.67761019    -0.37300
N3036       N  0.75262347  0.01226948  0.66276161    -0.39700
N3037       N  0.84002880  0.01849854  0.67744816    -0.39500
N3038       N  0.88421251  0.98274783  0.66079452    -0.37100
N3039       N  0.77536440  0.88074469  0.65544131    -0.38200
N3040       N  0.72706221  0.91756632  0.67139943    -0.39800
C3041       C  0.71899907  0.19778847  0.70264661    -0.04800
C3042       C  0.69383253  0.21462543  0.70446480     0.09400
C3043       C  0.66721322  0.20014154  0.70635357    -0.02200
C3044       C  0.66578052  0.16892649  0.70653051    -0.00400
C3045       C  0.69118988  0.15182110  0.70488284    -0.04000
C3046       C  0.71781930  0.16655428  0.70289853     0.03000
C3047       C  0.69534351  0.24776301  0.70449197     0.09800
C3048       C  0.64116961  0.21754604  0.70805912     0.35700
C3049       C  0.74441170  0.14978070  0.70132182     0.39100
C3050       C  0.68686329  0.26398997  0.69820065    -0.04400
C3051       C  0.68724241  0.29527493  0.69831738     0.02800
C3052       C  0.69596460  0.31063523  0.70478364    -0.04000
C3053       C  0.70465966  0.29410339  0.71107560    -0.00200
C3054       C  0.70424932  0.26287815  0.71091718    -0.02800
C3055       C  0.67692447  0.24831518  0.69167106     0.36500
C3056       C  0.71441574  0.30903103  0.71773842     0.40100
C3057       C  0.67732002  0.31143214  0.69186859     0.39200
C3058       C  0.71242661  0.24617554  0.71743892     0.36100
C3059       C  0.74612658  0.21271364  0.70048253     0.36800
C3060       C  0.63774984  0.15461103  0.70817076     0.40100
N3061       N  0.66933340  0.32420409  0.68671025    -0.38000
N3062       N  0.66883768  0.23566750  0.68649845    -0.39600
N3063       N  0.72202962  0.32089257  0.72306982    -0.37300
N3064       N  0.71883172  0.23289226  0.72265411    -0.39700
N3065       N  0.62044637  0.23154182  0.70939118    -0.39500
N3066       N  0.61530884  0.14333316  0.70947003    -0.37100
N3067       N  0.76562307  0.13641402  0.70005925    -0.38200
N3068       N  0.76773693  0.22458667  0.69871943    -0.39800
C3069       C  0.73891552  0.01028720  0.73885805    -0.04800
C3070       C  0.74739228  0.03556796  0.74290474     0.09400
C3071       C  0.74583285  0.06372389  0.73957060    -0.02200
C3072       C  0.73557743  0.06673674  0.73225724    -0.00400
C3073       C  0.72696788  0.04143046  0.72814235    -0.04000
C3074       C  0.72898279  0.01312081  0.73149208     0.03000
C3075       C  0.75874403  0.03296462  0.75065138     0.09800
C3076       C  0.75474959  0.08971451  0.74373081     0.35700
C3077       C  0.72190617  0.98670118  0.72729712     0.39100
C3078       C  0.78933237  0.02969048  0.75192544    -0.04400
C3079       C  0.80083255  0.03221865  0.75913848     0.02800
C3080       C  0.78170104  0.03788691  0.76516681    -0.04000
C3081       C  0.75080951  0.03936633  0.76391576    -0.00200
C3082       C  0.73942220  0.03684419  0.75668711    -0.02800
C3083       C  0.80907155  0.02456892  0.74574778     0.36500
C3084       C  0.73062670  0.04327110  0.77006626     0.40100
C3085       C  0.83258630  0.03077766  0.76024849     0.39200
C3086       C  0.70780409  0.03865509  0.75542307     0.36100
C3087       C  0.74043994  0.98135165  0.74229743     0.36800
C3088       C  0.73303860  0.09615757  0.72910674     0.40100
N3089       N  0.85791726  0.02971275  0.76113595    -0.38000
N3090       N  0.82476083  0.02038810  0.74081200    -0.39600
N3091       N  0.71456804  0.04637549  0.77498057    -0.37300
N3092       N  0.68256003  0.03996780  0.75441960    -0.39700
N3093       N  0.76191445  0.11030823  0.74708700    -0.39500
N3094       N  0.73106293  0.11968559  0.72662904    -0.37100
N3095       N  0.71640970  0.96560316  0.72394008    -0.38200
N3096       N  0.74158642  0.95826623  0.74504990    -0.39800
C3097       C  0.96304210  0.02507633  0.79016381    -0.04800
C3098       C  0.97947598  0.04521605  0.78583340     0.09400
C3099       C  0.96454583  0.06695406  0.78168847    -0.02200
C3100       C  0.93338929  0.06885233  0.78194357    -0.00400
C3101       C  0.91669612  0.04834739  0.78618129    -0.04000
C3102       C  0.93179631  0.02634961  0.79027314     0.03000
C3103       C  0.01266361  0.04446050  0.78585980     0.09800
C3104       C  0.98142007  0.08769265  0.77722870     0.35700
C3105       C  0.91530071  0.00454737  0.79449116     0.39100
C3106       C  0.02810778  0.02425969  0.78135415    -0.04400
C3107       C  0.05938880  0.02456879  0.78115618     0.02800
C3108       C  0.07550571  0.04534082  0.78543290    -0.04000
C3109       C  0.05982527  0.06530303  0.79002111    -0.00200
C3110       C  0.02862919  0.06464956  0.79026498    -0.02800
C3111       C  0.01168684  0.00330167  0.77687441     0.36500
C3112       C  0.07556533  0.08756687  0.79426820     0.40100
C3113       C  0.07486687  0.00301952  0.77666334     0.39200
C3114       C  0.01279502  0.08502377  0.79501715     0.36100
C3115       C  0.97843540  0.00335123  0.79461363     0.36800
C3116       C  0.91876754  0.09300575  0.77814571     0.40100
N3117       N  0.08716398  0.98576819  0.77308518    -0.38000
N3118       N  0.99852240  0.98657647  0.77331484    -0.39600
N3119       N  0.08809972  0.10535820  0.79764544    -0.37300
N3120       N  0.00013786  0.10125390  0.79880544    -0.39700
N3121       N  0.99494434  0.10420787  0.77368189    -0.39500
N3122       N  0.90713979  0.11240867  0.77516633    -0.37100
N3123       N  0.90218100  0.98709916  0.79785118    -0.38200
N3124       N  0.99080219  0.98613578  0.79818203    -0.39800
C3125       C  0.17715571  0.26340126  0.79617405    -0.04800
C3126       C  0.18568816  0.24616503  0.79004950     0.09400
C3127       C  0.19668563  0.26018962  0.78365994    -0.02200
C3128       C  0.19823309  0.29131606  0.78327852    -0.00400
C3129       C  0.18823578  0.30883298  0.78925188    -0.04000
C3130       C  0.17858016  0.29465299  0.79580819     0.03000
C3131       C  0.18221849  0.21318068  0.79013501     0.09800
C3132       C  0.20593417  0.24243311  0.77740607     0.35700
C3133       C  0.16929106  0.31203627  0.80211836     0.39100
C3134       C  0.15517613  0.20029643  0.78793061    -0.04400
C3135       C  0.15276260  0.16934867  0.78708325     0.02800
C3136       C  0.17730807  0.15090572  0.78856558    -0.04000
C3137       C  0.20414258  0.16383238  0.79102511    -0.00200
C3138       C  0.20660913  0.19488678  0.79174134    -0.02800
C3139       C  0.13001721  0.21907541  0.78632826     0.36500
C3140       C  0.22984483  0.14548084  0.79238824     0.40100
C3141       C  0.12492313  0.15657484  0.78465106     0.39200
C3142       C  0.23459548  0.20822012  0.79384785     0.36100
C3143       C  0.16633448  0.24889482  0.80279032     0.36800
C3144       C  0.21105921  0.30521795  0.77679705     0.40100
N3145       N  0.10279809  0.14638991  0.78265992    -0.38000
N3146       N  0.10994482  0.23405997  0.78505607    -0.39600
N3147       N  0.25044646  0.13095828  0.79345748    -0.37300
N3148       N  0.25694880  0.21893445  0.79547584    -0.39700
N3149       N  0.21324018  0.22815435  0.77243402    -0.39500
N3150       N  0.22147059  0.31627840  0.77164823    -0.37100
N3151       N  0.16204366  0.32581818  0.80718423    -0.38200
N3152       N  0.15764307  0.23730110  0.80806184    -0.39800
C3153       C  0.20976027  0.92748231  0.68024007    -0.04800
C3154       C  0.23214205  0.94679011  0.67781324     0.09400
C3155       C  0.23877304  0.94844719  0.67026114    -0.02200
C3156       C  0.22323192  0.93085585  0.66508596    -0.00400
C3157       C  0.19845058  0.91307325  0.66732870    -0.04000
C3158       C  0.19305694  0.91079976  0.67510627     0.03000
C3159       C  0.25007917  0.96444881  0.68322569     0.09800
C3160       C  0.26239171  0.96813524  0.66783502     0.35700
C3161       C  0.17067430  0.89071889  0.67798644     0.39100
C3162       C  0.27718329  0.95329261  0.68586789    -0.04400
C3163       C  0.29504062  0.97054626  0.69060901     0.02800
C3164       C  0.28630149  0.99954772  0.69260874    -0.04000
C3165       C  0.25911692  0.01073014  0.68989065    -0.00200
C3166       C  0.24091219  0.99301889  0.68532833    -0.02800
C3167       C  0.28696717  0.92419337  0.68354950     0.36500
C3168       C  0.24952672  0.04034156  0.69182592     0.40100
C3169       C  0.32307137  0.95879272  0.69314847     0.39200
C3170       C  0.21267137  0.00413801  0.68275427     0.36100
C3171       C  0.20412622  0.92466249  0.68809292     0.36800
C3172       C  0.23570796  0.92982488  0.65774811     0.40100
N3173       N  0.34543675  0.94941415  0.69517161    -0.38000
N3174       N  0.29477386  0.90104492  0.68165065    -0.39600
N3175       N  0.24185540  0.06402928  0.69330386    -0.37300
N3176       N  0.19003834  0.01280347  0.68071815    -0.39700
N3177       N  0.28116133  0.98386121  0.66592408    -0.39500
N3178       N  0.24697074  0.93020295  0.65201155    -0.37100
N3179       N  0.15284775  0.87481521  0.68032343    -0.38200
N3180       N  0.19977318  0.92239782  0.69435926    -0.39800
C3181       C  0.34321685  0.19854169  0.70019726    -0.04800
C3182       C  0.34448978  0.21402151  0.70694400     0.09400
C3183       C  0.34518387  0.19811696  0.71363017    -0.02200
C3184       C  0.34499198  0.16687019  0.71358681    -0.00400
C3185       C  0.34358856  0.15113203  0.70682134    -0.04000
C3186       C  0.34242987  0.16726926  0.70012080     0.03000
C3187       C  0.34474706  0.24721415  0.70701160     0.09800
C3188       C  0.34568895  0.21403362  0.72057907     0.35700
C3189       C  0.34110167  0.15188581  0.69310671     0.39100
C3190       C  0.31800587  0.26299951  0.70639078    -0.04400
C3191       C  0.31812407  0.29425912  0.70645674     0.02800
C3192       C  0.34511943  0.31008083  0.70711017    -0.04000
C3193       C  0.37192671  0.29409633  0.70777286    -0.00200
C3194       C  0.37166775  0.26281953  0.70774053    -0.02800
C3195       C  0.29026748  0.24691280  0.70581099     0.36500
C3196       C  0.39996688  0.30970029  0.70830486     0.40100
C3197       C  0.29022294  0.31000062  0.70618848     0.39200
C3198       C  0.39912976  0.24654578  0.70846322     0.36100
C3199       C  0.34297378  0.21495639  0.69331917     0.36800
C3200       C  0.34528254  0.15109913  0.72056414     0.40100
N3201       N  0.26794666  0.32253488  0.70600326    -0.38000
N3202       N  0.26820045  0.23397514  0.70535448    -0.39600
N3203       N  0.42235224  0.32210810  0.70873009    -0.37300
N3204       N  0.42096481  0.23346434  0.70906604    -0.39700
N3205       N  0.34602289  0.22671855  0.72612272    -0.39500
N3206       N  0.34560468  0.13855496  0.72613143    -0.37100
N3207       N  0.33991156  0.13971907  0.68749726    -0.38200
N3208       N  0.34284377  0.22815012  0.68784694    -0.39800
C3209       C  0.47958289  0.02087639  0.69850496    -0.04800
C3210       C  0.49782001  0.03078052  0.70431461     0.09400
C3211       C  0.48484524  0.04127141  0.71088341    -0.02200
C3212       C  0.45377754  0.04255138  0.71158928    -0.00400
C3213       C  0.43532679  0.03384105  0.70564526    -0.04000
C3214       C  0.44846005  0.02245991  0.69914843     0.03000
C3215       C  0.53077079  0.03185447  0.70341184     0.09800
C3216       C  0.50362960  0.05185374  0.71681982     0.35700
C3217       C  0.43000440  0.01192442  0.69315292     0.39100
C3218       C  0.54418472  0.05678284  0.70010670    -0.04400
C3219       C  0.57530302  0.05954771  0.69993540     0.02800
C3220       C  0.59333834  0.03721365  0.70306033    -0.04000
C3221       C  0.57975922  0.01135520  0.70594139    -0.00200
C3222       C  0.54860823  0.00892845  0.70621689    -0.02800
C3223       C  0.52577985  0.08015675  0.69712464     0.36500
C3224       C  0.59778869  0.98686673  0.70847018     0.40100
C3225       C  0.58848266  0.08614194  0.69684867     0.39200
C3226       C  0.53480736  0.98318456  0.70956348     0.36100
C3227       C  0.49297727  0.00954190  0.69181217     0.36800
C3228       C  0.44103247  0.05428659  0.71832819     0.40100
N3229       N  0.59888264  0.10737571  0.69436651    -0.38000
N3230       N  0.51099988  0.09874023  0.69475892    -0.39600
N3231       N  0.61217447  0.96723611  0.71042939    -0.37300
N3232       N  0.52375809  0.96274372  0.71227325    -0.39700
N3233       N  0.51868499  0.06040898  0.72152387    -0.39500
N3234       N  0.43095267  0.06360736  0.72371583    -0.37100
N3235       N  0.41528243  0.00347270  0.68837201    -0.38200
N3236       N  0.50373857  0.00053721  0.68647489    -0.39800
C3237       C  0.26155171  0.06691794  0.73800751    -0.04800
C3238       C  0.26245830  0.04047396  0.74211136     0.09400
C3239       C  0.27930352  0.01638976  0.73955233    -0.02200
C3240       C  0.29498831  0.01856730  0.73283555    -0.00400
C3241       C  0.29410831  0.04511105  0.72865462    -0.04000
C3242       C  0.27742956  0.06939157  0.73134447     0.03000
C3243       C  0.24679931  0.03877704  0.74935411     0.09800
C3244       C  0.28047535  0.98936913  0.74386903     0.35700
C3245       C  0.27717503  0.09742498  0.72742847     0.39100
C3246       C  0.21653581  0.03110291  0.74968173    -0.04400
C3247       C  0.20127857  0.03197836  0.75647971     0.02800
C3248       C  0.21626141  0.04088086  0.76296204    -0.04000
C3249       C  0.24688716  0.04749416  0.76263083    -0.00200
C3250       C  0.26198649  0.04665906  0.75584424    -0.02800
C3251       C  0.20091017  0.02345222  0.74296006     0.36500
C3252       C  0.26309600  0.05491432  0.76929291     0.40100
C3253       C  0.16990388  0.02516066  0.75670477     0.39200
C3254       C  0.29300996  0.05493867  0.75547779     0.36100
C3255       C  0.24444188  0.09178095  0.74072433     0.36800
C3256       C  0.31127236  0.99307610  0.73018078     0.40100
N3257       N  0.14486970  0.01970527  0.75686639    -0.38000
N3258       N  0.18844539  0.01753691  0.73758334    -0.39600
N3259       N  0.27600754  0.06081778  0.77460513    -0.37300
N3260       N  0.31770114  0.06169667  0.75516818    -0.39700
N3261       N  0.28143106  0.96786105  0.74732919    -0.39500
N3262       N  0.32422129  0.97267594  0.72808524    -0.37100
N3263       N  0.27681048  0.11983619  0.72433443    -0.38200
N3264       N  0.23074312  0.11152763  0.74290613    -0.39800
C3265       C  0.74966442  0.46566149  0.56565419    -0.04800
C3266       C  0.76665347  0.49031535  0.56338113     0.09400
C3267       C  0.76676580  0.49861781  0.55587332    -0.02200
C3268       C  0.75065330  0.48191280  0.55064154    -0.00400
C3269       C  0.73369591  0.45715152  0.55290555    -0.04000
C3270       C  0.73279917  0.44948034  0.56046540     0.03000
C3271       C  0.78607141  0.50636710  0.56879778     0.09800
C3272       C  0.78381175  0.52421201  0.55353032     0.35700
C3273       C  0.71548176  0.42417186  0.56287470     0.39100
C3274       C  0.81550160  0.49728945  0.56981003    -0.04400
C3275       C  0.83434608  0.51266626  0.57472899     0.02800
C3276       C  0.82480545  0.53936624  0.57819549    -0.04000
C3277       C  0.79383358  0.54552600  0.57793375    -0.00200
C3278       C  0.77485070  0.52946308  0.57317502    -0.02800
C3279       C  0.82607755  0.47125103  0.56592851     0.36500
C3280       C  0.78096976  0.56774039  0.58273694     0.40100
C3281       C  0.86142994  0.49801307  0.57684702     0.39200
C3282       C  0.74358121  0.53643932  0.57283197     0.36100
C3283       C  0.75049396  0.45633259  0.57330338     0.36800
C3284       C  0.75113345  0.49054619  0.54293486     0.40100
N3285       N  0.88260470  0.48506121  0.57836272    -0.38000
N3286       N  0.83434712  0.45042372  0.56284800    -0.39600
N3287       N  0.77063347  0.58534694  0.58658325    -0.37300
N3288       N  0.71858669  0.54183174  0.57260277    -0.39700
N3289       N  0.79738208  0.54466813  0.55166875    -0.39500
N3290       N  0.75150553  0.49743552  0.53678698    -0.37100
N3291       N  0.70163580  0.40399321  0.56479786    -0.38200
N3292       N  0.75145065  0.44882585  0.57940125    -0.39800
C3293       C  0.79565353  0.49450986  0.43616307    -0.04800
C3294       C  0.78422147  0.46874406  0.43281250     0.09400
C3295       C  0.75429807  0.46104924  0.43384926    -0.02200
C3296       C  0.73587199  0.47867002  0.43832688    -0.00400
C3297       C  0.74728457  0.50443408  0.44184448    -0.04000
C3298       C  0.77730492  0.51244678  0.44059633     0.03000
C3299       C  0.80359233  0.44972311  0.42808547     0.09800
C3300       C  0.74249199  0.43477763  0.43028126     0.35700
C3301       C  0.78939633  0.53961457  0.44364369     0.39100
C3302       C  0.81499878  0.42299429  0.43085223    -0.04400
C3303       C  0.83215409  0.40434616  0.42628887     0.02800
C3304       C  0.83693610  0.41163332  0.41871332    -0.04000
C3305       C  0.82935138  0.44095047  0.41645533    -0.00200
C3306       C  0.81127283  0.45891252  0.42092951    -0.02800
C3307       C  0.80931233  0.41493291  0.43847891     0.36500
C3308       C  0.84176311  0.45407140  0.40982754     0.40100
C3309       C  0.84676264  0.37936672  0.42971813     0.39200
C3310       C  0.80038293  0.48699502  0.41815440     0.36100
C3311       C  0.82645685  0.50252537  0.43503409     0.36800
C3312       C  0.70529771  0.46960196  0.43934586     0.40100
N3313       N  0.85812308  0.35947218  0.43255973    -0.38000
N3314       N  0.80472651  0.40859163  0.44455964    -0.39600
N3315       N  0.85147807  0.46495823  0.40457338    -0.37300
N3316       N  0.79158045  0.50935388  0.41596202    -0.39700
N3317       N  0.73318889  0.41378089  0.42744306    -0.39500
N3318       N  0.68090783  0.46228536  0.44009468    -0.37100
N3319       N  0.79916801  0.56129528  0.44603509    -0.38200
N3320       N  0.85099242  0.50892516  0.43409843    -0.39800
C3321       C  0.68630922  0.51264986  0.49193417    -0.04800
C3322       C  0.70388569  0.48729326  0.49307521     0.09400
C3323       C  0.72135007  0.47629437  0.48723873    -0.02200
C3324       C  0.72069249  0.49011535  0.48024485    -0.00400
C3325       C  0.70239953  0.51502659  0.47902355    -0.04000
C3326       C  0.68542442  0.52637701  0.48494343     0.03000
C3327       C  0.70255007  0.47126046  0.50032067     0.09800
C3328       C  0.73957448  0.45035979  0.48841565     0.35700
C3329       C  0.66568213  0.55120115  0.48376562     0.39100
C3330       C  0.67794188  0.45312590  0.50197551    -0.04400
C3331       C  0.67526810  0.43972608  0.50897846     0.02800
C3332       C  0.69789565  0.44329853  0.51431059    -0.04000
C3333       C  0.72328440  0.46027458  0.51248962    -0.00200
C3334       C  0.72531850  0.47462499  0.50557640    -0.02800
C3335       C  0.65530660  0.44829425  0.49642944     0.36500
C3336       C  0.74787397  0.46215380  0.51760452     0.40100
C3337       C  0.64847429  0.42344311  0.51077414     0.39200
C3338       C  0.75077328  0.49303964  0.50387367     0.36100
C3339       C  0.66859526  0.52424997  0.49794670     0.36800
C3340       C  0.73920020  0.47886006  0.47434459     0.40100
N3341       N  0.62700260  0.41062858  0.51220633    -0.38000
N3342       N  0.63739846  0.44438494  0.49197411    -0.39600
N3343       N  0.76766752  0.46344422  0.52163760    -0.37300
N3344       N  0.77108994  0.50772617  0.50251270    -0.39700
N3345       N  0.75411899  0.42969402  0.48938982    -0.39500
N3346       N  0.75402047  0.46985546  0.46964996    -0.37100
N3347       N  0.64984443  0.57090998  0.48281186    -0.38200
N3348       N  0.65440929  0.53344400  0.50273812    -0.39800
C3349       C  0.80816279  0.91743453  0.56019132    -0.04800
C3350       C  0.79961683  0.94583861  0.56256952     0.09400
C3351       C  0.81130204  0.95705953  0.56919782    -0.02200
C3352       C  0.83026599  0.93949996  0.57354659    -0.00400
C3353       C  0.83447707  0.90897487  0.57191984    -0.04000
C3354       C  0.82618481  0.89938680  0.56471556     0.03000
C3355       C  0.78078169  0.96514127  0.55773818     0.09800
C3356       C  0.80435310  0.98705807  0.57145676     0.35700
C3357       C  0.83955071  0.87345798  0.56141381     0.39100
C3358       C  0.74974836  0.96206138  0.55778849    -0.04400
C3359       C  0.73193846  0.98084828  0.55342098     0.02800
C3360       C  0.74512965  0.00231932  0.54871242    -0.04000
C3361       C  0.77644438  0.00490296  0.54860206    -0.00200
C3362       C  0.79405211  0.98660872  0.55313924    -0.02800
C3363       C  0.73621511  0.93898779  0.56223769     0.36500
C3364       C  0.79083529  0.02669368  0.54392474     0.40100
C3365       C  0.70004381  0.97722144  0.55365620     0.39200
C3366       C  0.82602982  0.98961062  0.55303887     0.36100
C3367       C  0.79935245  0.90732126  0.55291998     0.36800
C3368       C  0.84886358  0.95418716  0.57893657     0.40100
N3369       N  0.67460782  0.97429926  0.55389817    -0.38000
N3370       N  0.72553599  0.92033377  0.56572685    -0.39600
N3371       N  0.80247434  0.04392391  0.54017922    -0.37300
N3372       N  0.85153642  0.99194609  0.55299118    -0.39700
N3373       N  0.79868331  0.01095843  0.57325171    -0.39500
N3374       N  0.86465385  0.96640857  0.58293710    -0.37100
N3375       N  0.85037912  0.85299105  0.55869593    -0.38200
N3376       N  0.79242262  0.89937795  0.54710350    -0.39800
C3377       C  0.71262362  0.19599066  0.54207507    -0.04800
C3378       C  0.71175480  0.21282448  0.53553615     0.09400
C3379       C  0.71163985  0.19827475  0.52866369    -0.02200
C3380       C  0.71038930  0.16702975  0.52831542    -0.00400
C3381       C  0.70944080  0.14989868  0.53489615    -0.04000
C3382       C  0.71204429  0.16472733  0.54176909     0.03000
C3383       C  0.70874409  0.24587245  0.53589256     0.09800
C3384       C  0.71205075  0.21566883  0.52193218     0.35700
C3385       C  0.71504884  0.14798665  0.54855303     0.39100
C3386       C  0.73388406  0.26429988  0.53650151    -0.04400
C3387       C  0.73069707  0.29543983  0.53680982     0.02800
C3388       C  0.70218370  0.30840332  0.53660394    -0.04000
C3389       C  0.67702409  0.28965906  0.53598105    -0.00200
C3390       C  0.68037373  0.25865679  0.53561011    -0.02800
C3391       C  0.76303788  0.25107987  0.53682976     0.36500
C3392       C  0.64753193  0.30209308  0.53542447     0.40100
C3393       C  0.75682030  0.31394800  0.53751014     0.39200
C3394       C  0.65452311  0.23971956  0.53487490     0.36100
C3395       C  0.71337996  0.21101810  0.54914208     0.36800
C3396       C  0.70914736  0.15292152  0.52113424     0.40100
N3397       N  0.77772561  0.32865434  0.53805426    -0.38000
N3398       N  0.78626861  0.24044937  0.53710962    -0.39600
N3399       N  0.62396981  0.31187380  0.53496818    -0.37300
N3400       N  0.63398375  0.22455048  0.53426501    -0.39700
N3401       N  0.71241969  0.22959548  0.51657370    -0.39500
N3402       N  0.70830552  0.14181876  0.51538496    -0.37100
N3403       N  0.71775472  0.13471661  0.55397102    -0.38200
N3404       N  0.71390383  0.22314842  0.55476137    -0.39800
C3405       C  0.77875995  0.98723277  0.43438345    -0.04800
C3406       C  0.77081882  0.98598182  0.42686528     0.09400
C3407       C  0.74692748  0.96790417  0.42465097    -0.02200
C3408       C  0.73099851  0.95119054  0.42992327    -0.00400
C3409       C  0.73858317  0.95273538  0.43749666    -0.04000
C3410       C  0.76253176  0.97101458  0.43969257     0.03000
C3411       C  0.78801693  0.00360496  0.42129658     0.09800
C3412       C  0.73888401  0.96640946  0.41691806     0.35700
C3413       C  0.76971933  0.97433815  0.44744694     0.39100
C3414       C  0.81472107  0.99254633  0.41843587    -0.04400
C3415       C  0.83212129  0.01009016  0.41364756     0.02800
C3416       C  0.82462900  0.04028670  0.41232642    -0.04000
C3417       C  0.79524805  0.04901583  0.41414233    -0.00200
C3418       C  0.77743272  0.03106753  0.41875947    -0.02800
C3419       C  0.82406049  0.96282442  0.42035884     0.36500
C3420       C  0.78230785  0.07531481  0.41090206     0.40100
C3421       C  0.85568760  0.99575884  0.40956776     0.39200
C3422       C  0.74801574  0.04068816  0.42085517     0.36100
C3423       C  0.80367725  0.00541694  0.43664382     0.36800
C3424       C  0.70735263  0.93171886  0.42749106     0.40100
N3425       N  0.87440980  0.98410329  0.40633055    -0.38000
N3426       N  0.83147379  0.93912789  0.42190532    -0.39600
N3427       N  0.77180433  0.09621113  0.40831566    -0.37300
N3428       N  0.72443033  0.04820061  0.42247011    -0.39700
N3429       N  0.73242225  0.96532613  0.41074936    -0.39500
N3430       N  0.68852931  0.91612876  0.42555494    -0.37100
N3431       N  0.77536162  0.97719458  0.45363213    -0.38200
N3432       N  0.82366994  0.01983689  0.43840493    -0.39800
C3433       C  0.71057333  0.76199997  0.44624070    -0.04800
C3434       C  0.70464523  0.74544781  0.45266853     0.09400
C3435       C  0.69839460  0.76019333  0.45933251    -0.02200
C3436       C  0.69667446  0.79133855  0.45951609    -0.00400
C3437       C  0.70228362  0.80819704  0.45305406    -0.04000
C3438       C  0.70974719  0.79325164  0.44643816     0.03000
C3439       C  0.70343575  0.71235069  0.45241557     0.09800
C3440       C  0.69329543  0.74309416  0.46600037     0.35700
C3441       C  0.71706816  0.80990169  0.43983804     0.39100
C3442       C  0.72952974  0.69555193  0.45305353    -0.04400
C3443       C  0.72798484  0.66437215  0.45348649     0.02800
C3444       C  0.70021392  0.64976357  0.45334577    -0.04000
C3445       C  0.67411706  0.66674474  0.45243810    -0.00200
C3446       C  0.67581409  0.69786888  0.45196208    -0.02800
C3447       C  0.75795148  0.71048959  0.45336542     0.36500
C3448       C  0.64526092  0.65251705  0.45230951     0.40100
C3449       C  0.75509921  0.64737413  0.45389888     0.39200
C3450       C  0.64902975  0.71521706  0.45115104     0.36100
C3451       C  0.71715392  0.74674857  0.43939985     0.36800
C3452       C  0.68735557  0.80562442  0.46629220     0.40100
N3453       N  0.77674121  0.63381071  0.45419950    -0.38000
N3454       N  0.78060407  0.72247144  0.45359716    -0.39600
N3455       N  0.62221314  0.64126621  0.45219787    -0.37300
N3456       N  0.62775020  0.72916040  0.45051473    -0.39700
N3457       N  0.68933905  0.72935977  0.47130233    -0.39500
N3458       N  0.67966459  0.81670851  0.47171430    -0.37100
N3459       N  0.72297757  0.82317364  0.43457401    -0.38200
N3460       N  0.72240243  0.73452005  0.43394852    -0.39800
C3461       C  0.69905449  0.94303551  0.48884708    -0.04800
C3462       C  0.69848771  0.97410123  0.48963422     0.09400
C3463       C  0.69824081  0.99219113  0.48328063    -0.02200
C3464       C  0.69839482  0.97929413  0.47618209    -0.00400
C3465       C  0.69799827  0.94813952  0.47538356    -0.04000
C3466       C  0.69871521  0.93009464  0.48177023     0.03000
C3467       C  0.69742327  0.98766263  0.49718367     0.09800
C3468       C  0.69713768  0.02411619  0.48406572     0.35700
C3469       C  0.69789323  0.89809480  0.48111846     0.39100
C3470       C  0.72293205  0.00074184  0.50027536    -0.04400
C3471       C  0.72196053  0.01313611  0.50743050     0.02800
C3472       C  0.69534138  0.01250362  0.51158940    -0.04000
C3473       C  0.66989305  0.99893152  0.50847244    -0.00200
C3474       C  0.67093585  0.98685672  0.50129685    -0.02800
C3475       C  0.75030391  0.00116611  0.49608425     0.36500
C3476       C  0.64221428  0.99786494  0.51252939     0.40100
C3477       C  0.74880788  0.02547666  0.51057306     0.39200
C3478       C  0.64455108  0.97380446  0.49807673     0.36100
C3479       C  0.69929540  0.92430966  0.49535270     0.36800
C3480       C  0.69993385  0.99814625  0.46971246     0.40100
N3481       N  0.77034027  0.03520340  0.51304902    -0.38000
N3482       N  0.77204379  0.00153113  0.49270613    -0.39600
N3483       N  0.62010235  0.99682222  0.51574590    -0.37300
N3484       N  0.62357938  0.96334114  0.49549253    -0.39700
N3485       N  0.69617922  0.04958064  0.48471034    -0.39500
N3486       N  0.70141789  0.01319985  0.46455710    -0.37100
N3487       N  0.69727294  0.87256607  0.48062477    -0.38200
N3488       N  0.69926410  0.90932836  0.50053173    -0.39800
C3489       C  0.26560623  0.46551639  0.56392635    -0.04800
C3490       C  0.24410984  0.48502694  0.56109963     0.09400
C3491       C  0.23909382  0.48636852  0.55343955    -0.02200
C3492       C  0.25636148  0.46926438  0.54857795    -0.00400
C3493       C  0.27817161  0.44980913  0.55137203    -0.04000
C3494       C  0.28245161  0.44778409  0.55909119     0.03000
C3495       C  0.22726943  0.50501531  0.56615970     0.09800
C3496       C  0.21598472  0.50537953  0.55057539     0.35700
C3497       C  0.30362387  0.42695898  0.56209780     0.39100
C3498       C  0.23693558  0.53422472  0.56728092    -0.04400
C3499       C  0.22084133  0.55352698  0.57190736     0.02800
C3500       C  0.19316285  0.54459334  0.57504822    -0.04000
C3501       C  0.18581123  0.51375946  0.57453688    -0.00200
C3502       C  0.20230598  0.49454692  0.56996823    -0.02800
C3503       C  0.26412305  0.54420199  0.56376449     0.36500
C3504       C  0.16224484  0.50070270  0.57890425     0.40100
C3505       C  0.23499574  0.58124691  0.57381539     0.39200
C3506       C  0.19384664  0.46364669  0.56921593     0.36100
C3507       C  0.27023494  0.46366979  0.57182859     0.36800
C3508       C  0.25259709  0.47295745  0.54068225     0.40100
N3509       N  0.24755229  0.60299829  0.57508657    -0.38000
N3510       N  0.28577849  0.55212838  0.56096874    -0.39600
N3511       N  0.14325972  0.48974040  0.58222424    -0.37300
N3512       N  0.18736522  0.43895970  0.56861400    -0.39700
N3513       N  0.19738179  0.52038614  0.54831368    -0.39500
N3514       N  0.24974116  0.47605294  0.53438656    -0.37100
N3515       N  0.32043275  0.41028973  0.56450831    -0.38200
N3516       N  0.27376280  0.46215483  0.57813848    -0.39800
C3517       C  0.47855693  0.39136868  0.53177464    -0.04800
C3518       C  0.49306379  0.40713799  0.53742184     0.09400
C3519       C  0.47631738  0.42136678  0.54292667    -0.02200
C3520       C  0.44510324  0.42036593  0.54273170    -0.00400
C3521       C  0.43027296  0.40454610  0.53706519    -0.04000
C3522       C  0.44736088  0.38980417  0.53161352     0.03000
C3523       C  0.52615222  0.40851620  0.53764291     0.09800
C3524       C  0.49141107  0.43681091  0.54885312     0.35700
C3525       C  0.43309695  0.37348400  0.52569846     0.39100
C3526       C  0.54144157  0.43115888  0.53385936    -0.04400
C3527       C  0.57261564  0.43272094  0.53416143     0.02800
C3528       C  0.58884496  0.41111524  0.53810181    -0.04000
C3529       C  0.57330083  0.38877477  0.54202595    -0.00200
C3530       C  0.54210918  0.38750829  0.54177078    -0.02800
C3531       C  0.52500234  0.45270192  0.52959021     0.36500
C3532       C  0.58921530  0.36646837  0.54617912     0.40100
C3533       C  0.58784746  0.45729563  0.53064633     0.39200
C3534       C  0.52629704  0.36424333  0.54566015     0.36100
C3535       C  0.49586096  0.37680223  0.52609952     0.36800
C3536       C  0.42850540  0.43507227  0.54851224     0.40100
N3537       N  0.60001711  0.47701768  0.52790100    -0.38000
N3538       N  0.51188139  0.46978122  0.52615162    -0.39600
N3539       N  0.60181065  0.34871966  0.54953054    -0.37300
N3540       N  0.51361287  0.34569136  0.54874429    -0.39700
N3541       N  0.50359120  0.44894915  0.55358555    -0.39500
N3542       N  0.41538950  0.44692276  0.55312733    -0.37100
N3543       N  0.42175388  0.36033174  0.52100204    -0.38200
N3544       N  0.50962247  0.36523311  0.52155881    -0.39800
C3545       C  0.21150166  0.43067111  0.42839480    -0.04800
C3546       C  0.23524008  0.44747017  0.42565167     0.09400
C3547       C  0.24244205  0.44591928  0.41813502    -0.02200
C3548       C  0.22551688  0.42812707  0.41329026    -0.00400
C3549       C  0.19894350  0.41383027  0.41576851    -0.04000
C3550       C  0.19352138  0.41395405  0.42356454     0.03000
C3551       C  0.25337750  0.46603052  0.43078740     0.09800
C3552       C  0.26800583  0.46225518  0.41542729     0.35700
C3553       C  0.16983378  0.39667484  0.42685573     0.39100
C3554       C  0.28011274  0.45500787  0.43369158    -0.04400
C3555       C  0.29664576  0.47212917  0.43872738     0.02800
C3556       C  0.28669354  0.50057005  0.44081738    -0.04000
C3557       C  0.25982328  0.51149583  0.43792945    -0.00200
C3558       C  0.24332366  0.49431496  0.43289813    -0.02800
C3559       C  0.29050513  0.42595281  0.43150917     0.36500
C3560       C  0.24941074  0.54067909  0.44000117     0.40100
C3561       C  0.32315797  0.45984783  0.44202744     0.39200
C3562       C  0.21610297  0.50582083  0.42980656     0.36100
C3563       C  0.20597820  0.43024903  0.43629279     0.36800
C3564       C  0.23800507  0.42291399  0.40605714     0.40100
N3565       N  0.34418287  0.45002246  0.44470691    -0.38000
N3566       N  0.29887682  0.40284115  0.42973660    -0.39600
N3567       N  0.24106583  0.56393023  0.44166603    -0.37300
N3568       N  0.19441770  0.51497843  0.42731689    -0.39700
N3569       N  0.28840552  0.47525066  0.41329495    -0.39500
N3570       N  0.24909451  0.41969558  0.40036013    -0.37100
N3571       N  0.15064441  0.38380727  0.42963637    -0.38200
N3572       N  0.20179968  0.42984024  0.44259061    -0.39800
C3573       C  0.48217617  0.52569798  0.45133668    -0.04800
C3574       C  0.49892719  0.54882063  0.45447014     0.09400
C3575       C  0.48450019  0.57378358  0.45741312    -0.02200
C3576       C  0.45330836  0.57530328  0.45741750    -0.00400
C3577       C  0.43625909  0.55183131  0.45439039    -0.04000
C3578       C  0.45103931  0.52741667  0.45115289     0.03000
C3579       C  0.53193236  0.54691571  0.45466128     0.09800
C3580       C  0.50190909  0.59776083  0.46052862     0.35700
C3581       C  0.43442706  0.50448529  0.44735971     0.39100
C3582       C  0.54872725  0.55516219  0.44842883    -0.04400
C3583       C  0.57991150  0.55413492  0.44866797     0.02800
C3584       C  0.59449977  0.54528401  0.45521743    -0.04000
C3585       C  0.57748714  0.53604053  0.46136712    -0.00200
C3586       C  0.54633827  0.53693002  0.46108444    -0.02800
C3587       C  0.53379116  0.56534259  0.44182204     0.36500
C3588       C  0.59196469  0.52476158  0.46793179     0.40100
C3589       C  0.59679313  0.56314569  0.44223110     0.39200
C3590       C  0.52900336  0.52768525  0.46742228     0.36100
C3591       C  0.49710558  0.49987141  0.44839960     0.36800
C3592       C  0.43902625  0.60075813  0.46073764     0.40100
N3593       N  0.61014124  0.57021038  0.43706681    -0.38000
N3594       N  0.52178026  0.57349270  0.43656963    -0.39600
N3595       N  0.60358130  0.51567882  0.47314539    -0.37300
N3596       N  0.51517443  0.52034065  0.47248119    -0.39700
N3597       N  0.51587512  0.61681297  0.46301485    -0.39500
N3598       N  0.42775483  0.62115527  0.46337280    -0.37100
N3599       N  0.42123983  0.48630440  0.44427752    -0.38200
N3600       N  0.50909045  0.47924210  0.44609943    -0.39800
C3601       C  0.34948756  0.46718477  0.50338819    -0.04800
C3602       C  0.32207735  0.47374295  0.50009367     0.09400
C3603       C  0.29553697  0.46709047  0.50384688    -0.02200
C3604       C  0.29640126  0.45373130  0.51089269    -0.00400
C3605       C  0.32392722  0.44670753  0.51417615    -0.04000
C3606       C  0.35047261  0.45350111  0.51035809     0.03000
C3607       C  0.32152309  0.48702696  0.49255192     0.09800
C3608       C  0.26739998  0.47394647  0.50041598     0.35700
C3609       C  0.37895137  0.44529994  0.51342992     0.39100
C3610       C  0.32416176  0.46861433  0.48631316    -0.04400
C3611       C  0.32651964  0.48112170  0.47921331     0.02800
C3612       C  0.32638376  0.51227227  0.47831333    -0.04000
C3613       C  0.32315015  0.53065084  0.48458963    -0.00200
C3614       C  0.32067084  0.51800820  0.49167656    -0.02800
C3615       C  0.32498232  0.43672009  0.48724424     0.36500
C3616       C  0.32391709  0.56263360  0.48384153     0.40100
C3617       C  0.32865230  0.46176369  0.47284766     0.39200
C3618       C  0.31811327  0.53688697  0.49811417     0.36100
C3619       C  0.37676826  0.47434538  0.49953820     0.36800
C3620       C  0.26897425  0.44804003  0.51480965     0.40100
N3621       N  0.33036757  0.44626791  0.46778340    -0.38000
N3622       N  0.32571236  0.41130031  0.48801210    -0.39600
N3623       N  0.32459178  0.58813866  0.48325051    -0.37300
N3624       N  0.31608527  0.55196890  0.50324626    -0.39700
N3625       N  0.24501807  0.47945257  0.49764929    -0.39500
N3626       N  0.24697622  0.44364003  0.51790135    -0.37100
N3627       N  0.40163099  0.43867983  0.51587493    -0.38200
N3628       N  0.39846827  0.48010142  0.49645401    -0.39800
C3629       C  0.24381671  0.91965936  0.56805054    -0.04800
C3630       C  0.23409955  0.94778897  0.56577755     0.09400
C3631       C  0.20899689  0.96024802  0.56913139    -0.02200
C3632       C  0.19236108  0.94380229  0.57430690    -0.00400
C3633       C  0.19919094  0.91353498  0.57575194    -0.04000
C3634       C  0.22734172  0.90325049  0.57328338     0.03000
C3635       C  0.25160151  0.96547213  0.56029126     0.09800
C3636       C  0.20068348  0.99043169  0.56735086     0.35700
C3637       C  0.24142230  0.87789499  0.57669141     0.39100
C3638       C  0.24173485  0.96796452  0.55294170    -0.04400
C3639       C  0.25779640  0.98520663  0.54780598     0.02800
C3640       C  0.28394835  0.00021832  0.54999665    -0.04000
C3641       C  0.29344273  0.99803999  0.55742706    -0.00200
C3642       C  0.27737736  0.98067470  0.56252769    -0.02800
C3643       C  0.21493214  0.95271351  0.55068066     0.36500
C3644       C  0.31901404  0.01468236  0.55995445     0.40100
C3645       C  0.24762080  0.98679547  0.54022946     0.39200
C3646       C  0.28705295  0.97878351  0.57014261     0.36100
C3647       C  0.27120842  0.90786600  0.56509265     0.36800
C3648       C  0.17007832  0.95930207  0.57856314     0.40100
N3649       N  0.23941022  0.98806917  0.53419324    -0.38000
N3650       N  0.19347891  0.94061964  0.54890456    -0.39600
N3651       N  0.33931449  0.02803805  0.56199499    -0.37300
N3652       N  0.29470453  0.97714913  0.57621803    -0.39700
N3653       N  0.19412534  0.01448438  0.56590783    -0.39500
N3654       N  0.15241799  0.97201759  0.58191645    -0.37100
N3655       N  0.25296024  0.85781762  0.57940606    -0.38200
N3656       N  0.29310485  0.89857793  0.56274087    -0.39800
C3657       C  0.30985103  0.26013647  0.54344881    -0.04800
C3658       C  0.31992043  0.24315554  0.53742880     0.09400
C3659       C  0.33063057  0.25757232  0.53105586    -0.02200
C3660       C  0.33139297  0.28876507  0.53069000    -0.00400
C3661       C  0.32121736  0.30602096  0.53671279    -0.04000
C3662       C  0.31041560  0.29140400  0.54310298     0.03000
C3663       C  0.31953428  0.20995824  0.53773050     0.09800
C3664       C  0.34143633  0.24013567  0.52489786     0.35700
C3665       C  0.29935795  0.30837228  0.54930729     0.39100
C3666       C  0.29764098  0.19392947  0.53386853    -0.04400
C3667       C  0.29910632  0.16274076  0.53342157     0.02800
C3668       C  0.32263943  0.14727658  0.53682816    -0.04000
C3669       C  0.34400618  0.16342477  0.54091114    -0.00200
C3670       C  0.34220649  0.19455788  0.54142811    -0.02800
C3671       C  0.27362290  0.20974384  0.53033734     0.36500
C3672       C  0.36894160  0.14829623  0.54423521     0.40100
C3673       C  0.27602967  0.14666568  0.52955402     0.39200
C3674       C  0.36398330  0.21085918  0.54568815     0.36100
C3675       C  0.29897379  0.24532646  0.55001671     0.36800
C3676       C  0.34407173  0.30285521  0.52421251     0.40100
N3677       N  0.25748898  0.13398661  0.52647582    -0.38000
N3678       N  0.25454755  0.22256302  0.52754396    -0.39600
N3679       N  0.38889160  0.13619226  0.54684336    -0.37300
N3680       N  0.38118032  0.22381286  0.54915319    -0.39700
N3681       N  0.34999302  0.22617535  0.51999384    -0.39500
N3682       N  0.35427589  0.31399318  0.51904757    -0.37100
N3683       N  0.29058241  0.32187019  0.55426896    -0.38200
N3684       N  0.29044197  0.23348350  0.55526921    -0.39800
C3685       C  0.54390505  0.07598495  0.53725619    -0.04800
C3686       C  0.52907606  0.04865590  0.53647464     0.09400
C3687       C  0.54561658  0.02245057  0.53566756    -0.02200
C3688       C  0.57685009  0.02362660  0.53540682    -0.00400
C3689       C  0.59186863  0.05114954  0.53595553    -0.04000
C3690       C  0.57512221  0.07731270  0.53696724     0.03000
C3691       C  0.49592366  0.04776005  0.53617237     0.09800
C3692       C  0.53036346  0.99426165  0.53503361     0.35700
C3693       C  0.58988433  0.10564888  0.53786489     0.39100
C3694       C  0.48140351  0.04938291  0.52930616    -0.04400
C3695       C  0.45021555  0.05002771  0.52896858     0.02800
C3696       C  0.43312636  0.04863530  0.53552567    -0.04000
C3697       C  0.44783705  0.04640953  0.54240769    -0.00200
C3698       C  0.47909061  0.04626527  0.54271503    -0.02800
C3699       C  0.49871237  0.05062206  0.52256714     0.36500
C3700       C  0.43100498  0.04539866  0.54922197     0.40100
C3701       C  0.43586975  0.05158497  0.52181912     0.39200
C3702       C  0.49407560  0.04520092  0.54977878     0.36100
C3703       C  0.52684436  0.10277407  0.53835669     0.36800
C3704       C  0.59333995  0.99652782  0.53424260     0.40100
N3705       N  0.42446985  0.05295856  0.51611581    -0.38000
N3706       N  0.51253702  0.05156010  0.51719557    -0.39600
N3707       N  0.41763286  0.04455196  0.55466662    -0.37300
N3708       N  0.50610283  0.04453451  0.55540771    -0.39700
N3709       N  0.51818321  0.97177277  0.53454178    -0.39500
N3710       N  0.60648003  0.97490591  0.53330571    -0.37100
N3711       N  0.60153485  0.12832184  0.53858265    -0.38200
N3712       N  0.51306494  0.12400512  0.53927104    -0.39800
C3713       C  0.23597243  0.98324886  0.43822491    -0.04800
C3714       C  0.24477708  0.98884444  0.43089703     0.09400
C3715       C  0.27057610  0.97540634  0.42810392    -0.02200
C3716       C  0.28757417  0.95646696  0.43261011    -0.00400
C3717       C  0.27926391  0.95126371  0.44004338    -0.04000
C3718       C  0.25321064  0.96480164  0.44280883     0.03000
C3719       C  0.22716433  0.00939392  0.42611698     0.09800
C3720       C  0.27973889  0.98139630  0.42057597     0.35700
C3721       C  0.24468396  0.96103045  0.45046996     0.39100
C3722       C  0.23562383  0.03921447  0.42541300    -0.04400
C3723       C  0.22005409  0.05849958  0.42065168     0.02800
C3724       C  0.19402907  0.04870426  0.41687941    -0.04000
C3725       C  0.18739831  0.01764389  0.41722629    -0.00200
C3726       C  0.20335037  0.99857031  0.42194089    -0.02800
C3727       C  0.26106521  0.04990360  0.42953316     0.36500
C3728       C  0.16459946  0.00443203  0.41263280     0.40100
C3729       C  0.23357275  0.08697483  0.41921590     0.39200
C3730       C  0.19537299  0.96746805  0.42248896     0.36100
C3731       C  0.20933856  0.99698394  0.44107339     0.36800
C3732       C  0.31320630  0.94181864  0.42948869     0.40100
N3733       N  0.24559433  0.10934659  0.41832113    -0.38000
N3734       N  0.28133975  0.05836155  0.43281777    -0.39600
N3735       N  0.14620537  0.99351608  0.40911415    -0.37300
N3736       N  0.18901085  0.94269822  0.42295207    -0.39700
N3737       N  0.28702545  0.98639121  0.41458122    -0.39500
N3738       N  0.33359055  0.93010549  0.42697280    -0.37100
N3739       N  0.23786569  0.95817920  0.45658478    -0.38200
N3740       N  0.18805667  0.00793726  0.44332473    -0.39800
C3741       C  0.29346757  0.75917721  0.45859511    -0.04800
C3742       C  0.31411319  0.74176071  0.45472435     0.09400
C3743       C  0.33578238  0.75562977  0.45029922    -0.02200
C3744       C  0.33751652  0.78679585  0.44994212    -0.00400
C3745       C  0.31750442  0.80448375  0.45403947    -0.04000
C3746       C  0.29511705  0.79039470  0.45826808     0.03000
C3747       C  0.31384734  0.70871945  0.45545932     0.09800
C3748       C  0.35675977  0.73768201  0.44622108     0.35700
C3749       C  0.27329927  0.80789314  0.46217459     0.39100
C3750       C  0.30153738  0.69094855  0.44984872    -0.04400
C3751       C  0.30420013  0.65982835  0.45015112     0.02800
C3752       C  0.31930603  0.64621677  0.45609271    -0.04000
C3753       C  0.33025838  0.66414855  0.46191138    -0.00200
C3754       C  0.32739054  0.69520718  0.46159400    -0.02800
C3755       C  0.28608902  0.70485868  0.44376427     0.36500
C3756       C  0.34578996  0.65098160  0.46809653     0.40100
C3757       C  0.29079569  0.64192723  0.44440598     0.39200
C3758       C  0.33884544  0.71339226  0.46754492     0.36100
C3759       C  0.27053985  0.74481865  0.46292390     0.36800
C3760       C  0.36089174  0.80043300  0.44560369     0.40100
N3761       N  0.28000717  0.62773076  0.43981948    -0.38000
N3762       N  0.27370554  0.71607606  0.43893563    -0.39600
N3763       N  0.35817302  0.64049222  0.47302799    -0.37300
N3764       N  0.34781226  0.72781394  0.47232550    -0.39700
N3765       N  0.37340092  0.72331899  0.44295862    -0.39500
N3766       N  0.37953464  0.81125045  0.44213550    -0.37100
N3767       N  0.25580415  0.82177688  0.46528514    -0.38200
N3768       N  0.25228000  0.73323915  0.46636349    -0.39800
C3769       C  0.47718029  0.88673532  0.44581710    -0.04800
C3770       C  0.49452796  0.89062201  0.45220103     0.09400
C3771       C  0.48063131  0.89444998  0.45909576    -0.02200
C3772       C  0.44950052  0.89466454  0.45961676    -0.00400
C3773       C  0.43190774  0.89227569  0.45317212    -0.04000
C3774       C  0.44599003  0.88795226  0.44626956     0.03000
C3775       C  0.52754332  0.89228308  0.45168269     0.09800
C3776       C  0.49852646  0.89900488  0.46564422     0.35700
C3777       C  0.42848608  0.88395812  0.43964141     0.39100
C3778       C  0.54139995  0.91978817  0.45036387    -0.04400
C3779       C  0.57248113  0.92236202  0.45070232     0.02800
C3780       C  0.59002398  0.89722461  0.45225565    -0.04000
C3781       C  0.57607078  0.86933560  0.45322434    -0.00200
C3782       C  0.54492968  0.86694318  0.45294996    -0.02800
C3783       C  0.52347181  0.94552998  0.44871857     0.36500
C3784       C  0.59371252  0.84289163  0.45430495     0.40100
C3785       C  0.58616120  0.95122339  0.44977499     0.39200
C3786       C  0.53067427  0.83839033  0.45392361     0.36100
C3787       C  0.49157718  0.88155763  0.43878555     0.36800
C3788       C  0.43579927  0.89808821  0.46680689     0.40100
N3789       N  0.59701336  0.97428643  0.44904993    -0.38000
N3790       N  0.50904231  0.96592217  0.44735902    -0.39600
N3791       N  0.60782115  0.82182015  0.45514259    -0.37300
N3792       N  0.51928929  0.81559018  0.45465883    -0.39700
N3793       N  0.51285163  0.90283222  0.47084640    -0.39500
N3794       N  0.42497726  0.90047758  0.47256315    -0.37100
N3795       N  0.41455304  0.88078188  0.43434617    -0.38200
N3796       N  0.50317559  0.87729101  0.43319456    -0.39800
C3797       C  0.33077413  0.97061960  0.50340685    -0.04800
C3798       C  0.32092956  0.98873335  0.49757746     0.09400
C3799       C  0.31086769  0.01760198  0.49908032    -0.02200
C3800       C  0.31167748  0.02877246  0.50635228    -0.00400
C3801       C  0.32250510  0.01100917  0.51220674    -0.04000
C3802       C  0.33156045  0.98161483  0.51068670     0.03000
C3803       C  0.32215526  0.97742224  0.48982136     0.09800
C3804       C  0.30023556  0.03601991  0.49309476     0.35700
C3805       C  0.34136151  0.96233956  0.51659621     0.39100
C3806       C  0.29670122  0.96534847  0.48648171    -0.04400
C3807       C  0.29867000  0.95168263  0.47949713     0.02800
C3808       C  0.32616208  0.95035616  0.47573729    -0.04000
C3809       C  0.35123656  0.96436885  0.47891296    -0.00200
C3810       C  0.34927242  0.97740037  0.48596865    -0.02800
C3811       C  0.26852393  0.96671811  0.49030128     0.36500
C3812       C  0.37940509  0.96487497  0.47506758     0.40100
C3813       C  0.27212979  0.93958490  0.47614202     0.39200
C3814       C  0.37538888  0.99022525  0.48937573     0.36100
C3815       C  0.34032860  0.94060634  0.50186061     0.36800
C3816       C  0.30276214  0.05912844  0.50769160     0.40100
N3817       N  0.25090646  0.92996476  0.47348352    -0.38000
N3818       N  0.24604775  0.96802921  0.49334460    -0.39600
N3819       N  0.40188546  0.96571055  0.47201017    -0.37300
N3820       N  0.39622306  0.00029708  0.49212027    -0.39700
N3821       N  0.29164972  0.05068267  0.48832506    -0.39500
N3822       N  0.29571315  0.08335629  0.50876509    -0.37100
N3823       N  0.34922008  0.94682165  0.52127678    -0.38200
N3824       N  0.34793961  0.91672771  0.50056950    -0.39800
C3825       C  0.28684950  0.91932941  0.92562075    -0.04800
C3826       C  0.29573951  0.94851296  0.92714079     0.09400
C3827       C  0.31969746  0.96079325  0.92324303    -0.02200
C3828       C  0.33529747  0.94374468  0.91798100    -0.00400
C3829       C  0.32845116  0.91304839  0.91687716    -0.04000
C3830       C  0.30209239  0.90216544  0.92032288     0.03000
C3831       C  0.27835164  0.96711053  0.93245978     0.09800
C3832       C  0.32825184  0.99127090  0.92467602     0.35700
C3833       C  0.28815858  0.87476118  0.91806041     0.39100
C3834       C  0.28725636  0.96955623  0.93988788    -0.04400
C3835       C  0.27082715  0.98707116  0.94488528     0.02800
C3836       C  0.24505467  0.00205623  0.94249847    -0.04000
C3837       C  0.23625001  0.99951479  0.93502522    -0.00200
C3838       C  0.25281423  0.98213402  0.93004821    -0.02800
C3839       C  0.31306142  0.95345524  0.94239944     0.36500
C3840       C  0.21056646  0.01546773  0.93236524     0.40100
C3841       C  0.27997221  0.98869429  0.95253831     0.39200
C3842       C  0.24351513  0.97953432  0.92241800     0.36100
C3843       C  0.26156777  0.90697621  0.92951938     0.36800
C3844       C  0.35738686  0.95887622  0.91353572     0.40100
N3845       N  0.28741178  0.98991401  0.95863694    -0.38000
N3846       N  0.33360143  0.94045122  0.94437289    -0.39600
N3847       N  0.19010218  0.02822070  0.93024377    -0.37300
N3848       N  0.23607190  0.97736665  0.91633612    -0.39700
N3849       N  0.33507590  0.01551333  0.92587203    -0.39500
N3850       N  0.37520036  0.97131457  0.91013292    -0.37100
N3851       N  0.27602205  0.85306515  0.91650299    -0.38200
N3852       N  0.24150950  0.89706830  0.93264459    -0.39800
C3853       C  0.54527909  0.90721900  0.90800285    -0.04800
C3854       C  0.52765821  0.88167720  0.90882022     0.09400
C3855       C  0.54123058  0.85418454  0.91014121    -0.02200
C3856       C  0.57227477  0.85223101  0.91080437    -0.00400
C3857       C  0.59029368  0.87793201  0.91012878    -0.04000
C3858       C  0.57638532  0.90537699  0.90852790     0.03000
C3859       C  0.49462745  0.88371107  0.90842427     0.09800
C3860       C  0.52310548  0.82768315  0.91078742     0.35700
C3861       C  0.59380221  0.93175399  0.90707544     0.39100
C3862       C  0.48020440  0.88616608  0.90155557    -0.04400
C3863       C  0.44900604  0.88769275  0.90122028     0.02800
C3864       C  0.43188332  0.88531479  0.90774506    -0.04000
C3865       C  0.44663584  0.88248604  0.91463060    -0.00200
C3866       C  0.47778046  0.88251939  0.91495567    -0.02800
C3867       C  0.49759442  0.88672858  0.89482441     0.36500
C3868       C  0.43006918  0.87734394  0.92137735     0.40100
C3869       C  0.43480203  0.89245622  0.89415462     0.39200
C3870       C  0.49263894  0.88093197  0.92203957     0.36100
C3871       C  0.53123534  0.93551766  0.90661999     0.36800
C3872       C  0.58495327  0.82331886  0.91209668     0.40100
N3873       N  0.42384904  0.89636627  0.88847241    -0.38000
N3874       N  0.51158672  0.88709097  0.88947492    -0.39600
N3875       N  0.41688364  0.87321765  0.92675845    -0.37300
N3876       N  0.50450908  0.87973378  0.92768366    -0.39700
N3877       N  0.50888899  0.80643314  0.91132033    -0.39500
N3878       N  0.59352190  0.79946069  0.91292203    -0.37100
N3879       N  0.60735297  0.95306155  0.90595284    -0.38200
N3880       N  0.51995874  0.95803583  0.90550565    -0.39800
C3881       C  0.70285936  0.94410977  0.92927062    -0.04800
C3882       C  0.73058963  0.95321192  0.92655328     0.09400
C3883       C  0.74102176  0.94138881  0.91986792    -0.02200
C3884       C  0.72370937  0.92075770  0.91586963    -0.00400
C3885       C  0.69422114  0.91368778  0.91813697    -0.04000
C3886       C  0.68545190  0.92350799  0.92531295     0.03000
C3887       C  0.75049537  0.97172500  0.93132639     0.09800
C3888       C  0.77017952  0.94982352  0.91722295     0.35700
C3889       C  0.66058160  0.91018555  0.92915880     0.39100
C3890       C  0.76561854  0.95833582  0.93725450    -0.04400
C3891       C  0.78259920  0.97567158  0.94214746     0.02800
C3892       C  0.78480698  0.00665594  0.94114243    -0.04000
C3893       C  0.77081798  0.01987022  0.93498415    -0.00200
C3894       C  0.75351531  0.00245460  0.93013094    -0.02800
C3895       C  0.76369210  0.92653244  0.93829931     0.36500
C3896       C  0.77357948  0.05146683  0.93372316     0.40100
C3897       C  0.79888026  0.96129386  0.94803102     0.39200
C3898       C  0.73845699  0.01613348  0.92395785     0.36100
C3899       C  0.69272286  0.95533362  0.93634297     0.36800
C3900       C  0.73801748  0.90452354  0.90996655     0.40100
N3901       N  0.81205772  0.94973339  0.95267433    -0.38000
N3902       N  0.76210311  0.90116690  0.93911222    -0.39600
N3903       N  0.77589459  0.07665764  0.93269370    -0.37300
N3904       N  0.72646113  0.02699457  0.91901818    -0.39700
N3905       N  0.79335303  0.95672692  0.91509877    -0.39500
N3906       N  0.74969305  0.89152661  0.90530184    -0.37100
N3907       N  0.64089301  0.89975761  0.93233068    -0.38200
N3908       N  0.68485652  0.96435292  0.94198502    -0.39800
C3909       C  0.36492931  0.69835968  0.91387903    -0.04800
C3910       C  0.35885975  0.71418715  0.90734187     0.09400
C3911       C  0.35295278  0.69839478  0.90078330    -0.02200
C3912       C  0.35222085  0.66707909  0.90081442    -0.00400
C3913       C  0.35857565  0.65114012  0.90733522    -0.04000
C3914       C  0.36565393  0.66710893  0.91382772     0.03000
C3915       C  0.36016559  0.74747785  0.90731389     0.09800
C3916       C  0.34838444  0.71444979  0.89394491     0.35700
C3917       C  0.37679346  0.65162219  0.92025102     0.39100
C3918       C  0.38766792  0.76218598  0.90796486    -0.04400
C3919       C  0.38898494  0.79341253  0.90830571     0.02800
C3920       C  0.36286273  0.81038009  0.90772162    -0.04000
C3921       C  0.33559566  0.79560301  0.90652241    -0.00200
C3922       C  0.33411804  0.76437375  0.90656826    -0.02800
C3923       C  0.41477976  0.74507823  0.90817867     0.36500
C3924       C  0.30966015  0.81238157  0.90439860     0.40100
C3925       C  0.41745698  0.80764447  0.90922304     0.39200
C3926       C  0.30574935  0.74963823  0.90575233     0.36100
C3927       C  0.37120479  0.71435412  0.92064195     0.36800
C3928       C  0.34472900  0.65155807  0.89410080     0.40100
N3929       N  0.44078904  0.81782814  0.90991301    -0.38000
N3930       N  0.43641595  0.73147254  0.90833883    -0.39600
N3931       N  0.28919889  0.82553754  0.90243926    -0.37300
N3932       N  0.28307007  0.73798599  0.90507684    -0.39700
N3933       N  0.34482953  0.72731549  0.88849766    -0.39500
N3934       N  0.33857139  0.63998923  0.88862803    -0.37100
N3935       N  0.38655385  0.63956489  0.92532212    -0.38200
N3936       N  0.37634027  0.72720776  0.92601304    -0.39800
C3937       C  0.31339108  0.49712320  0.92106339    -0.04800
C3938       C  0.29968862  0.50842580  0.92741265     0.09400
C3939       C  0.30332514  0.53850202  0.92917563    -0.02200
C3940       C  0.32001331  0.55752402  0.92453529    -0.00400
C3941       C  0.33157740  0.54722888  0.91764561    -0.04000
C3942       C  0.32975671  0.51594480  0.91632167     0.03000
C3943       C  0.28196636  0.48840181  0.93238044     0.09800
C3944       C  0.28999500  0.54979495  0.93590023     0.35700
C3945       C  0.34522979  0.50212882  0.91021515     0.39100
C3946       C  0.29498923  0.47564813  0.93869326    -0.04400
C3947       C  0.27800401  0.45756358  0.94348461     0.02800
C3948       C  0.24756545  0.45227123  0.94203709    -0.04000
C3949       C  0.23502088  0.46421503  0.93550910    -0.00200
C3950       C  0.25206509  0.48235407  0.93076998    -0.02800
C3951       C  0.32587598  0.48161807  0.94030608     0.36500
C3952       C  0.20477178  0.45713123  0.93347825     0.40100
C3953       C  0.29193798  0.44512955  0.94998317     0.39200
C3954       C  0.23874331  0.49521487  0.92424097     0.36100
C3955       C  0.31069554  0.46575011  0.91943320     0.36800
C3956       C  0.32704687  0.58655210  0.92742267     0.40100
N3957       N  0.30324394  0.43515517  0.95513781    -0.38000
N3958       N  0.35048886  0.48653176  0.94158651    -0.39600
N3959       N  0.18069487  0.45140080  0.93182668    -0.37300
N3960       N  0.22820215  0.50556842  0.91903406    -0.39700
N3961       N  0.27931679  0.55867463  0.94126119    -0.39500
N3962       N  0.33189882  0.60946440  0.93001207    -0.37100
N3963       N  0.35680876  0.49068355  0.90528991    -0.38200
N3964       N  0.30850176  0.44076320  0.91812935    -0.39800
C3965       C  0.64028409  0.69849517  0.91131006    -0.04800
C3966       C  0.66741841  0.71223140  0.91306310     0.09400
C3967       C  0.69254381  0.69457014  0.91430404    -0.02200
C3968       C  0.69093083  0.66351811  0.91344696    -0.00400
C3969       C  0.66339477  0.64927965  0.91195266    -0.04000
C3970       C  0.63794812  0.66730887  0.91103819     0.03000
C3971       C  0.66972162  0.74541292  0.91323377     0.09800
C3972       C  0.72037573  0.70855702  0.91630877     0.35700
C3973       C  0.60893640  0.65451345  0.90984924     0.39100
C3974       C  0.65593832  0.76180005  0.91892016    -0.04400
C3975       C  0.65554612  0.79303152  0.91861332     0.02800
C3976       C  0.66851228  0.80789930  0.91257658    -0.04000
C3977       C  0.68573480  0.79183680  0.90749770    -0.00200
C3978       C  0.68525510  0.76063152  0.90760756    -0.02800
C3979       C  0.64161059  0.74651340  0.92498922     0.36500
C3980       C  0.70446330  0.80747627  0.90227651     0.40100
C3981       C  0.64157147  0.80994060  0.92445265     0.39200
C3982       C  0.69979459  0.74421691  0.90177229     0.36100
C3983       C  0.61479542  0.71662361  0.90952788     0.36800
C3984       C  0.71831875  0.64692484  0.91360273     0.40100
N3985       N  0.63044664  0.82359163  0.92908218    -0.38000
N3986       N  0.63004060  0.73433974  0.92981882    -0.39600
N3987       N  0.71949898  0.81998119  0.89813903    -0.37300
N3988       N  0.71132719  0.73101725  0.89712366    -0.39700
N3989       N  0.74254182  0.71979538  0.91787784    -0.39500
N3990       N  0.74053212  0.63429297  0.91373702    -0.37100
N3991       N  0.58523102  0.64574663  0.90880816    -0.38200
N3992       N  0.59449001  0.73097013  0.90804587    -0.39800
C3993       C  0.48079568  0.60613438  0.90760101    -0.04800
C3994       C  0.49560507  0.57898082  0.90843702     0.09400
C3995       C  0.47903665  0.55271220  0.90915807    -0.02200
C3996       C  0.44778595  0.55346600  0.90898063    -0.00400
C3997       C  0.43248623  0.58083348  0.90832700    -0.04000
C3998       C  0.44951249  0.60720017  0.90759176     0.03000
C3999       C  0.52881115  0.57807408  0.90851640     0.09800
C4000       C  0.49432135  0.52474286  0.91004739     0.35700
C4001       C  0.43556088  0.63583465  0.90686844     0.39100
C4002       C  0.54435483  0.58325051  0.91512874    -0.04400
C4003       C  0.57559632  0.58367258  0.91515475     0.02800
C4004       C  0.59167424  0.57717919  0.90864289    -0.04000
C4005       C  0.57597925  0.57159500  0.90204540    -0.00200
C4006       C  0.54471431  0.57272879  0.90195415    -0.02800
C4007       C  0.52806305  0.58854674  0.92189397     0.36500
C4008       C  0.59165229  0.56405398  0.89534926     0.40100
C4009       C  0.59106444  0.59355996  0.92171517     0.39200
C4010       C  0.52878478  0.56886805  0.89507719     0.36100
C4011       C  0.49798410  0.63312836  0.90672945     0.36800
C4012       C  0.43179844  0.52559521  0.90893994     0.40100
N4013       N  0.60318622  0.60230943  0.92689767    -0.38000
N4014       N  0.51495040  0.59261668  0.92728243    -0.39600
N4015       N  0.60322551  0.55768093  0.88988940    -0.37300
N4016       N  0.51603252  0.56605769  0.88958859    -0.39700
N4017       N  0.50652118  0.50245595  0.91077785    -0.39500
N4018       N  0.41959841  0.50304771  0.90887540    -0.37100
N4019       N  0.42586265  0.65931912  0.90615577    -0.38200
N4020       N  0.51169539  0.65462898  0.90602419    -0.39800
C4021       C  0.74210945  0.52395165  0.92234127    -0.04800
C4022       C  0.72905572  0.50789775  0.92815207     0.09400
C4023       C  0.69861559  0.51123280  0.92951758    -0.02200
C4024       C  0.68131162  0.53056644  0.92515950    -0.00400
C4025       C  0.69328531  0.54426316  0.91868519    -0.04000
C4026       C  0.72468981  0.54219340  0.91770867     0.03000
C4027       C  0.74777042  0.48924301  0.93321692     0.09800
C4028       C  0.68511457  0.49504969  0.93558369     0.35700
C4029       C  0.74006222  0.55984303  0.91221511     0.39100
C4030       C  0.75497001  0.49957082  0.94035251    -0.04400
C4031       C  0.77218879  0.48205622  0.94516020     0.02800
C4032       C  0.78238799  0.45387703  0.94290849    -0.04000
C4033       C  0.77528165  0.44358936  0.93574757    -0.00200
C4034       C  0.75817716  0.46126332  0.93092188    -0.02800
C4035       C  0.74487648  0.52849137  0.94272786     0.36500
C4036       C  0.78457781  0.41435018  0.93342226     0.40100
C4037       C  0.78035710  0.49362767  0.95234629     0.39200
C4038       C  0.75109660  0.45065598  0.92358245     0.36100
C4039       C  0.77388261  0.52213653  0.92123684     0.36800
C4040       C  0.65253825  0.53846005  0.92805381     0.40100
N4041       N  0.78701375  0.50278999  0.95807220    -0.38000
N4042       N  0.73672701  0.55150391  0.94463961    -0.39600
N4043       N  0.79181840  0.39096519  0.93155972    -0.37300
N4044       N  0.74552066  0.44241251  0.91770134    -0.39700
N4045       N  0.67437250  0.48213372  0.94041231    -0.39500
N4046       N  0.62977551  0.54411531  0.93060624    -0.37100
N4047       N  0.75275068  0.57339771  0.90780273    -0.38200
N4048       N  0.79920369  0.52063734  0.92036699    -0.39800
C4049       C  0.31811469  0.88540380  0.86268807    -0.04800
C4050       C  0.34464135  0.89064318  0.86656415     0.09400
C4051       C  0.37089522  0.89649420  0.86261789    -0.02200
C4052       C  0.37061477  0.89766871  0.85484475    -0.00400
C4053       C  0.34438522  0.89120382  0.85090694    -0.04000
C4054       C  0.31814651  0.88475327  0.85489374     0.03000
C4055       C  0.34564977  0.88830424  0.87480819     0.09800
C4056       C  0.39853965  0.90012415  0.86658649     0.35700
C4057       C  0.29222877  0.87365214  0.85107683     0.39100
C4058       C  0.34942774  0.86049198  0.87816873    -0.04400
C4059       C  0.35318227  0.85822963  0.88588403     0.02800
C4060       C  0.35309699  0.88399531  0.89038875    -0.04000
C4061       C  0.34943828  0.91199472  0.88690810    -0.00200
C4062       C  0.34542484  0.91398900  0.87919400    -0.02800
C4063       C  0.35007560  0.83402756  0.87362627     0.36500
C4064       C  0.35145466  0.93918604  0.89112542     0.40100
C4065       C  0.35743921  0.82900080  0.88897059     0.39200
C4066       C  0.34161928  0.94263895  0.87570342     0.36100
C4067       C  0.29104048  0.87952198  0.86674191     0.36800
C4068       C  0.39753939  0.90568068  0.85098648     0.40100
N4069       N  0.36137269  0.80504820  0.89099247    -0.38000
N4070       N  0.35064483  0.81277337  0.87007051    -0.39600
N4071       N  0.35290607  0.96111321  0.89440205    -0.37300
N4072       N  0.33859608  0.96545159  0.87290274    -0.39700
N4073       N  0.42058713  0.90265163  0.86976711    -0.39500
N4074       N  0.41950780  0.91245027  0.84816616    -0.37100
N4075       N  0.27173992  0.86359810  0.84817709    -0.38200
N4076       N  0.26941828  0.87488924  0.86997374    -0.39800
C4077       C  0.26641631  0.94359649  0.82140366    -0.04800
C4078       C  0.27695199  0.94917987  0.81424968     0.09400
C4079       C  0.30313497  0.93562108  0.81185216    -0.02200
C4080       C  0.31917667  0.91696257  0.81664182    -0.00400
C4081       C  0.31082190  0.91388927  0.82423125    -0.04000
C4082       C  0.28248797  0.92522736  0.82626489     0.03000
C4083       C  0.25888616  0.96711880  0.80898705     0.09800
C4084       C  0.31344933  0.94084523  0.80437099     0.35700
C4085       C  0.26765780  0.91597258  0.83295620     0.39100
C4086       C  0.26235206  0.99807582  0.80867374    -0.04400
C4087       C  0.24471973  0.01500886  0.80385337     0.02800
C4088       C  0.22411010  0.00093681  0.79909632    -0.04000
C4089       C  0.22105625  0.96972554  0.79936365    -0.00200
C4090       C  0.23810369  0.95299912  0.80436522    -0.02800
C4091       C  0.28414681  0.01248641  0.81333025     0.36500
C4092       C  0.20115051  0.95452988  0.79435007     0.40100
C4093       C  0.24704252  0.04705016  0.80405507     0.39200
C4094       C  0.23434274  0.92112665  0.80478571     0.36100
C4095       C  0.23847833  0.95647199  0.82370657     0.36800
C4096       C  0.34286135  0.89962485  0.81342799     0.40100
N4097       N  0.24875916  0.07260552  0.80425012    -0.38000
N4098       N  0.30161852  0.02400954  0.81701461    -0.39600
N4099       N  0.18538335  0.94227678  0.79034655    -0.37300
N4100       N  0.23140920  0.89571312  0.80517119    -0.39700
N4101       N  0.32164791  0.94522615  0.79841938    -0.39500
N4102       N  0.36190241  0.88640506  0.81072958    -0.37100
N4103       N  0.25457809  0.90930340  0.83818682    -0.38200
N4104       N  0.21625043  0.96681684  0.82552677    -0.39800
C4105       C  0.67289247  0.87665871  0.86437023    -0.04800
C4106       C  0.64739911  0.87888878  0.86878629     0.09400
C4107       C  0.61930723  0.88006531  0.86543975    -0.02200
C4108       C  0.61671943  0.88017061  0.85767034    -0.00400
C4109       C  0.64244619  0.88021594  0.85318499    -0.04000
C4110       C  0.67046744  0.87688975  0.85662501     0.03000
C4111       C  0.65011849  0.87788964  0.87700666     0.09800
C4112       C  0.59300566  0.88042563  0.87004201     0.35700
C4113       C  0.69635854  0.86975318  0.85223915     0.39100
C4114       C  0.65385248  0.90411267  0.88104965    -0.04400
C4115       C  0.65665197  0.90322444  0.88881235     0.02800
C4116       C  0.65673596  0.87559441  0.89268038    -0.04000
C4117       C  0.65215691  0.84926116  0.88844235    -0.00200
C4118       C  0.64901899  0.85061377  0.88069730    -0.02800
C4119       C  0.65458197  0.93219866  0.87714881     0.36500
C4120       C  0.64983031  0.82023132  0.89177236     0.40100
C4121       C  0.65801863  0.93131256  0.89266879     0.39200
C4122       C  0.64450193  0.82369373  0.87644218     0.36100
C4123       C  0.70157667  0.87295386  0.86783341     0.36800
C4124       C  0.58748432  0.87814248  0.85447047     0.40100
N4125       N  0.65954039  0.95406816  0.89557910    -0.38000
N4126       N  0.65517184  0.95447696  0.87399757    -0.39600
N4127       N  0.64665029  0.79646995  0.89403566    -0.37300
N4128       N  0.64085072  0.80227583  0.87305836    -0.39700
N4129       N  0.57209089  0.88060264  0.87373008    -0.39500
N4130       N  0.56361649  0.87543976  0.85226514    -0.37100
N4131       N  0.71687174  0.86320238  0.84878950    -0.38200
N4132       N  0.72438290  0.86983058  0.87061707    -0.39800
C4133       C  0.52780563  0.90641429  0.83732996    -0.04800
C4134       C  0.51220501  0.88713261  0.83255246     0.09400
C4135       C  0.52834810  0.86751162  0.82800034    -0.02200
C4136       C  0.55932146  0.86511906  0.82876077    -0.00400
C4137       C  0.57473526  0.88415221  0.83358874    -0.04000
C4138       C  0.55902126  0.90609492  0.83749006     0.03000
C4139       C  0.47888593  0.88646457  0.83252216     0.09800
C4140       C  0.51302562  0.84968888  0.82253425     0.35700
C4141       C  0.57500761  0.92799797  0.84179557     0.39100
C4142       C  0.46240822  0.91154963  0.83042238    -0.04400
C4143       C  0.43123465  0.91141472  0.83103934     0.02800
C4144       C  0.41565801  0.88460340  0.83260099    -0.04000
C4145       C  0.43257971  0.85878646  0.83403201    -0.00200
C4146       C  0.46366234  0.86045458  0.83460546    -0.02800
C4147       C  0.47752872  0.93757753  0.82758227     0.36500
C4148       C  0.41892079  0.82980339  0.83451556     0.40100
C4149       C  0.41595158  0.93954316  0.83056143     0.39200
C4150       C  0.48004289  0.83522801  0.83740670     0.36100
C4151       C  0.51181586  0.92579033  0.84229872     0.36800
C4152       C  0.57515175  0.84317029  0.82450114     0.40100
N4153       N  0.40399376  0.96211579  0.83019562    -0.38000
N4154       N  0.48956606  0.95827867  0.82528558    -0.39600
N4155       N  0.40933538  0.80607215  0.83488012    -0.37300
N4156       N  0.49311445  0.81517505  0.83965201    -0.39700
N4157       N  0.50074636  0.83546063  0.81819260    -0.39500
N4158       N  0.58700544  0.82530265  0.82103126    -0.37100
N4159       N  0.58787940  0.94539280  0.84522043    -0.38200
N4160       N  0.49903441  0.94121022  0.84626860    -0.39800
C4161       C  0.69330892  0.93420836  0.81520930    -0.04800
C4162       C  0.71643693  0.95140339  0.81811676     0.09400
C4163       C  0.72262945  0.94997711  0.82569824    -0.02200
C4164       C  0.70555374  0.93166286  0.83042185    -0.00400
C4165       C  0.68000875  0.91625674  0.82770568    -0.04000
C4166       C  0.67543938  0.91665518  0.81988211     0.03000
C4167       C  0.73496578  0.97015964  0.81305939     0.09800
C4168       C  0.74718659  0.96717719  0.82862282     0.35700
C4169       C  0.65250399  0.89889589  0.81642237     0.39100
C4170       C  0.72389107  0.99724818  0.81039639    -0.04400
C4171       C  0.74016961  0.01389708  0.80518365     0.02800
C4172       C  0.76821432  0.00392519  0.80269043    -0.04000
C4173       C  0.77918902  0.97657367  0.80539464    -0.00200
C4174       C  0.76267250  0.95993197  0.81057126    -0.02800
C4175       C  0.69546625  0.00783005  0.81300955     0.36500
C4176       C  0.80753441  0.96532309  0.80291719     0.40100
C4177       C  0.72705950  0.04046410  0.80211838     0.39200
C4178       C  0.77410804  0.93209149  0.81334595     0.36100
C4179       C  0.68802387  0.93452767  0.80730425     0.36800
C4180       C  0.71700140  0.92722822  0.83778674     0.40100
N4181       N  0.71639753  0.06151322  0.79965200    -0.38000
N4182       N  0.67279204  0.01614883  0.81511609    -0.39600
N4183       N  0.83002204  0.95611059  0.80091925    -0.37300
N4184       N  0.78320762  0.90997052  0.81561161    -0.39700
N4185       N  0.76676101  0.98083166  0.83095714    -0.39500
N4186       N  0.72729674  0.92470004  0.84359523    -0.37100
N4187       N  0.63391979  0.88554950  0.81354190    -0.38200
N4188       N  0.68386404  0.93488345  0.80100810    -0.39800
C4189       C  0.35203855  0.59805107  0.86394735    -0.04800
C4190       C  0.35198226  0.56946547  0.86703273     0.09400
C4191       C  0.35305416  0.54459614  0.86236692    -0.02200
C4192       C  0.35511807  0.54830898  0.85463592    -0.00400
C4193       C  0.35458845  0.57714482  0.85144871    -0.04000
C4194       C  0.35307108  0.60197423  0.85623921     0.03000
C4195       C  0.35303499  0.56616316  0.87524867     0.09800
C4196       C  0.35219953  0.51514267  0.86555971     0.35700
C4197       C  0.35289990  0.63200406  0.85343731     0.39100
C4198       C  0.32738753  0.57063950  0.87952272    -0.04400
C4199       C  0.32945507  0.57309992  0.88727012     0.02800
C4200       C  0.35738219  0.57113700  0.89081676    -0.04000
C4201       C  0.38274111  0.56480246  0.88650934    -0.00200
C4202       C  0.38048497  0.56217767  0.87877428    -0.02800
C4203       C  0.29895990  0.57351809  0.87589101     0.36500
C4204       C  0.41134430  0.56052322  0.88992343     0.40100
C4205       C  0.30300542  0.57974176  0.89149370     0.39200
C4206       C  0.40658216  0.55583086  0.87438123     0.36100
C4207       C  0.35150178  0.62374941  0.86875594     0.36800
C4208       C  0.35941167  0.52227282  0.85008309     0.40100
N4209       N  0.28192263  0.58511663  0.89485800    -0.38000
N4210       N  0.27630848  0.57578434  0.87297851    -0.39600
N4211       N  0.43475103  0.55685235  0.89231775    -0.37300
N4212       N  0.42725495  0.55053259  0.87085531    -0.39700
N4213       N  0.35137681  0.49166428  0.86811082    -0.39500
N4214       N  0.36269838  0.50131071  0.84651040    -0.37100
N4215       N  0.35354212  0.65648381  0.85156817    -0.38200
N4216       N  0.35110194  0.64444433  0.87250918    -0.39800
C4217       C  0.32399938  0.69921533  0.83617495    -0.04800
C4218       C  0.34772838  0.71698671  0.83365059     0.09400
C4219       C  0.37340535  0.70322215  0.83083032    -0.02200
C4220       C  0.37516268  0.67208613  0.83052303    -0.00400
C4221       C  0.35318561  0.65453514  0.83392144    -0.04000
C4222       C  0.32694850  0.66813974  0.83645659     0.03000
C4223       C  0.34533085  0.75014726  0.83376695     0.09800
C4224       C  0.39799613  0.72109199  0.82821795     0.35700
C4225       C  0.30280319  0.65007429  0.83925550     0.39100
C4226       C  0.34582684  0.76557528  0.84052230    -0.04400
C4227       C  0.34329635  0.79675048  0.84066043     0.02800
C4228       C  0.34220235  0.81319704  0.83399425    -0.04000
C4229       C  0.34261094  0.79743384  0.82720603    -0.00200
C4230       C  0.34304453  0.76618491  0.82712450    -0.02800
C4231       C  0.34985414  0.74930261  0.84735472     0.36500
C4232       C  0.34447916  0.81295207  0.82022365     0.40100
C4233       C  0.34185086  0.81135409  0.84774676     0.39200
C4234       C  0.34158258  0.75042090  0.82015558     0.36100
C4235       C  0.29628196  0.71289729  0.83829186     0.36800
C4236       C  0.39798221  0.65822560  0.82609833     0.40100
N4237       N  0.34101419  0.82188160  0.85355231    -0.38000
N4238       N  0.35325213  0.73633680  0.85279312    -0.39600
N4239       N  0.34602897  0.82471049  0.81456829    -0.37300
N4240       N  0.34054116  0.73783663  0.81460283    -0.39700
N4241       N  0.41758794  0.73542412  0.82614709    -0.39500
N4242       N  0.41593774  0.64728319  0.82246101    -0.37100
N4243       N  0.28360980  0.63555457  0.84147196    -0.38200
N4244       N  0.27409163  0.72382503  0.83991616    -0.39800
C4245       C  0.27911881  0.52809915  0.82114678    -0.04800
C4246       C  0.29013949  0.52283822  0.81401803     0.09400
C4247       C  0.31677597  0.53633985  0.81180824    -0.02200
C4248       C  0.33358952  0.55307661  0.81689665    -0.00400
C4249       C  0.32496769  0.55485061  0.82446286    -0.04000
C4250       C  0.29563531  0.54510463  0.82622934     0.03000
C4251       C  0.27295051  0.50378406  0.80877747     0.09800
C4252       C  0.32635886  0.53369728  0.80419780     0.35700
C4253       C  0.28045566  0.55507184  0.83282489     0.39100
C4254       C  0.24889791  0.51551202  0.80480595    -0.04400
C4255       C  0.23103347  0.49684293  0.80039972     0.02800
C4256       C  0.23738014  0.46611969  0.79985107    -0.04000
C4257       C  0.26235584  0.45480077  0.80367642    -0.00200
C4258       C  0.27990673  0.47357312  0.80810451    -0.02800
C4259       C  0.24249665  0.54690264  0.80532052     0.36500
C4260       C  0.27057686  0.42387633  0.80303992     0.40100
C4261       C  0.20555038  0.50938734  0.79669205     0.39200
C4262       C  0.30524380  0.46179327  0.81203011     0.36100
C4263       C  0.25011678  0.51667531  0.82316016     0.36800
C4264       C  0.35807500  0.57063050  0.81408814     0.40100
N4265       N  0.18524612  0.51958040  0.79376291    -0.38000
N4266       N  0.23754295  0.57196453  0.80573690    -0.39600
N4267       N  0.27716047  0.39920885  0.80257497    -0.37300
N4268       N  0.32552759  0.45249975  0.81514433    -0.39700
N4269       N  0.33386761  0.53166666  0.79811568    -0.39500
N4270       N  0.37740294  0.58484365  0.81181760    -0.37100
N4271       N  0.26790905  0.56280789  0.83804640    -0.38200
N4272       N  0.22692109  0.50768635  0.82471289    -0.39800
C4273       C  0.63969984  0.58712829  0.86527150    -0.04800
C4274       C  0.66801081  0.58553148  0.86844172     0.09400
C4275       C  0.69303756  0.58484230  0.86384117    -0.02200
C4276       C  0.68984172  0.58510718  0.85607600    -0.00400
C4277       C  0.66117511  0.58527865  0.85274001    -0.04000
C4278       C  0.63616344  0.58768757  0.85752053     0.03000
C4279       C  0.67118966  0.58442959  0.87668401     0.09800
C4280       C  0.72224378  0.58351584  0.86714635     0.35700
C4281       C  0.60642423  0.59159627  0.85475017     0.39100
C4282       C  0.67060389  0.55698823  0.88037046    -0.04400
C4283       C  0.67046674  0.55582598  0.88816190     0.02800
C4284       C  0.67121783  0.58233606  0.89238530    -0.04000
C4285       C  0.67356130  0.60977390  0.88861068    -0.00200
C4286       C  0.67301359  0.61078022  0.88081645    -0.02800
C4287       C  0.66894984  0.52989870  0.87609122     0.36500
C4288       C  0.67740180  0.63718513  0.89265242     0.40100
C4289       C  0.66742390  0.52724538  0.89173786     0.39200
C4290       C  0.67362581  0.63906068  0.87701752     0.36100
C4291       C  0.61392925  0.58777429  0.87006851     0.36800
C4292       C  0.71656360  0.58644896  0.85164272     0.40100
N4293       N  0.66499472  0.50436470  0.89455260    -0.38000
N4294       N  0.66757485  0.50839137  0.87264173    -0.39600
N4295       N  0.68070882  0.65953728  0.89565798    -0.37300
N4296       N  0.67395861  0.66162702  0.87399338    -0.39700
N4297       N  0.74551581  0.58234015  0.86978451    -0.39500
N4298       N  0.73815606  0.58710091  0.84820634    -0.37100
N4299       N  0.58227909  0.59580118  0.85291223    -0.38200
N4300       N  0.59339473  0.58813024  0.87388451    -0.39800
C4301       C  0.62821261  0.70042606  0.83303536    -0.04800
C4302       C  0.65492105  0.71617601  0.83373435     0.09400
C4303       C  0.68148041  0.70079573  0.83492965    -0.02200
C4304       C  0.68130748  0.66965001  0.83548544    -0.00400
C4305       C  0.65467497  0.65338439  0.83452691    -0.04000
C4306       C  0.62789415  0.66929952  0.83361145     0.03000
C4307       C  0.65434712  0.74918175  0.83408498     0.09800
C4308       C  0.70891318  0.71723804  0.83578466     0.35700
C4309       C  0.59944473  0.65473787  0.83384941     0.39100
C4310       C  0.65274319  0.76328110  0.84097923    -0.04400
C4311       C  0.64980373  0.79430306  0.84141264     0.02800
C4312       C  0.64976188  0.81186819  0.83490128    -0.04000
C4313       C  0.65248613  0.79728734  0.82797302    -0.00200
C4314       C  0.65389734  0.76611747  0.82759230    -0.02800
C4315       C  0.65386538  0.74555395  0.84766916     0.36500
C4316       C  0.65345173  0.81374426  0.82112443     0.40100
C4317       C  0.64717404  0.80719730  0.84868031     0.39200
C4318       C  0.65427884  0.75123751  0.82049686     0.36100
C4319       C  0.60082761  0.71654405  0.83188044     0.36800
C4320       C  0.70795139  0.65502053  0.83795623     0.40100
N4321       N  0.64474154  0.81510895  0.85471368    -0.38000
N4322       N  0.65496188  0.73138316  0.85298073    -0.39600
N4323       N  0.65464869  0.82582507  0.81550736    -0.37300
N4324       N  0.65426099  0.73929981  0.81485060    -0.39700
N4325       N  0.73075220  0.73040503  0.83646151    -0.39500
N4326       N  0.72941026  0.64440042  0.84017563    -0.37100
N4327       N  0.57584799  0.64502133  0.83435104    -0.38200
N4328       N  0.57910209  0.72946738  0.83092394    -0.39800
C4329       C  0.47936211  0.60280121  0.83587271    -0.04800
C4330       C  0.49228436  0.57583160  0.83371840     0.09400
C4331       C  0.47390020  0.55117485  0.83242973    -0.02200
C4332       C  0.44291716  0.55337522  0.83334806    -0.00400
C4333       C  0.42922302  0.58127330  0.83465337    -0.04000
C4334       C  0.44821838  0.60574782  0.83630356     0.03000
C4335       C  0.52542813  0.57304049  0.83333733     0.09800
C4336       C  0.48699434  0.52338087  0.83013325     0.35700
C4337       C  0.43695713  0.63398450  0.83880198     0.39100
C4338       C  0.54099067  0.55805293  0.83896796    -0.04400
C4339       C  0.57222258  0.55759772  0.83892859     0.02800
C4340       C  0.58806817  0.57424505  0.83366132    -0.04000
C4341       C  0.57273519  0.58649398  0.82760469    -0.00200
C4342       C  0.54145622  0.58599690  0.82745858    -0.02800
C4343       C  0.52487815  0.54376079  0.84490782     0.36500
C4344       C  0.58913428  0.60062354  0.82167815     0.40100
C4345       C  0.58808406  0.53900741  0.84409899     0.39200
C4346       C  0.52571230  0.59920459  0.82132955     0.36100
C4347       C  0.49830086  0.62765876  0.83780794     0.36800
C4348       C  0.42582478  0.52617938  0.83372338     0.40100
N4349       N  0.60076083  0.52399911  0.84818330    -0.38000
N4350       N  0.51191065  0.53240525  0.84963969    -0.39600
N4351       N  0.60233484  0.61203739  0.81699413    -0.37300
N4352       N  0.51312128  0.60967082  0.81642952    -0.39700
N4353       N  0.49755307  0.50133006  0.82825569    -0.39500
N4354       N  0.41248453  0.50432079  0.83411730    -0.37100
N4355       N  0.42935085  0.65677714  0.84101048    -0.38200
N4356       N  0.51296578  0.64768150  0.83941346    -0.39800
C4357       C  0.70507302  0.50105526  0.82167248    -0.04800
C4358       C  0.72883351  0.51322918  0.81766325     0.09400
C4359       C  0.73781000  0.54245152  0.81912261    -0.02200
C4360       C  0.72143607  0.56041643  0.82403027    -0.00400
C4361       C  0.69457948  0.54980476  0.82726669    -0.04000
C4362       C  0.68885214  0.51878868  0.82666229     0.03000
C4363       C  0.74624600  0.49458937  0.81236952     0.09800
C4364       C  0.76495878  0.55354100  0.81580226     0.35700
C4365       C  0.66761551  0.50440583  0.83150188     0.39100
C4366       C  0.74006257  0.49549929  0.80474830    -0.04400
C4367       C  0.75733616  0.47894471  0.79972955     0.02800
C4368       C  0.78119728  0.46145150  0.80230321    -0.04000
C4369       C  0.78716787  0.46055370  0.80997571    -0.00200
C4370       C  0.76971699  0.47696781  0.81496369    -0.02800
C4371       C  0.71573548  0.51343440  0.80209010     0.36500
C4372       C  0.81188909  0.44351298  0.81277286     0.40100
C4373       C  0.74972798  0.47917967  0.79195547     0.39200
C4374       C  0.77605043  0.47601842  0.82280211     0.36100
C4375       C  0.69776671  0.46997762  0.82075773     0.36800
C4376       C  0.73508109  0.58789495  0.82632461     0.40100
N4377       N  0.74354750  0.47932943  0.78576127    -0.38000
N4378       N  0.69630698  0.52774188  0.79998150    -0.39600
N4379       N  0.83159845  0.42992137  0.81501035    -0.37300
N4380       N  0.78098189  0.47527153  0.82906081    -0.39700
N4381       N  0.78675294  0.56220381  0.81321630    -0.39500
N4382       N  0.74736335  0.60944262  0.82793045    -0.37100
N4383       N  0.65095207  0.49282341  0.83541292    -0.38200
N4384       N  0.69211853  0.44514626  0.82002620    -0.39800
loop_ 
_geom_bond_atom_site_label_1 
_geom_bond_atom_site_label_2 
_geom_bond_distance 
_geom_bond_site_symmetry_2 
_ccdc_geom_bond_type 
C1            C2   1.549       .  S
C1            C7   1.538       .  S
C1            C5   1.540       .  S
C1         C4361   1.561       .  S
C2            H9   1.113       .  S
C2            C3   1.365       .  D
C3            C4   1.535       .  S
C3         C4305   1.505       .  S
C4            C8   1.552       .  S
C4            C6   1.548       .  S
C4           H10   1.099       .  S
C5           H11   1.088       .  S
C5            C6   1.374       .  D
C6         C4277   1.525       .  S
C7           H12   1.090       .  S
C7            C8   1.359       .  D
C8         C4340   1.493       .  S
C13          C14   1.552       .  S
C13          C19   1.521       .  S
C13          C17   1.546       .  S
C13        C4249   1.556       .  S
C14          H21   1.083       .  S
C14          C15   1.380       .  D
C15          C16   1.547       .  S
C15        C4333   1.527       .  S
C16          C20   1.552       .  S
C16          C18   1.541       .  S
C16          H22   1.097       .  S
C17          H23   1.081       .  S
C17          C18   1.368       .  D
C18        C4193   1.510       .  S
C19          H24   1.087       .  S
C19          C20   1.354       .  D
C20        C4221   1.490       .  S
C25          C26   1.541       .  S
C25          C31   1.540       .  S
C25          C29   1.547       .  S
C25        C4165   1.563       .  S
C26          H33   1.086       .  S
C26          C27   1.360       .  D
C27          C28   1.543       .  S
C27        C4137   1.489       .  S
C28          C32   1.542       .  S
C28          C30   1.544       .  S
C28          H34   1.109       .  S
C29          H35   1.079       .  S
C29          C30   1.370       .  D
C30        C4109   1.502       .  S
C31          H36   1.086       .  S
C31          C32   1.368       .  D
C32        C4312   1.507       .  S
C37          C38   1.534       .  S
C37          C43   1.546       .  S
C37          C41   1.550       .  S
C37        C4081   1.562       .  S
C38          H45   1.086       .  S
C38          C39   1.369       .  D
C39          C40   1.547       .  S
C39        C4228   1.509       .  S
C40          C44   1.544       .  S
C40          C42   1.537       .  S
C40          H46   1.107       .  S
C41          H47   1.083       .  S
C41          C42   1.366       .  D
C42        C4053   1.497       .  S
C43          H48   1.080       .  S
C43          C44   1.368       .  D
C44        C4144   1.515       .  S
C49          C50   1.549       .  S
C49          C55   1.536       .  S
C49          C53   1.548       .  S
C49        C4025   1.568       .  S
C50          H57   1.082       .  S
C50          C51   1.366       .  D
C51          C52   1.541       .  S
C51        C4004   1.499       .  S
C52          C56   1.548       .  S
C52          C54   1.542       .  S
C52          H58   1.108       .  S
C53          H59   1.084       .  S
C53          C54   1.369       .  D
C54        C4284   1.508       .  S
C55          H60   1.086       .  S
C55          C56   1.370       .  D
C56        C3969   1.513       .  S
C61          C62   1.550       .  S
C61          C67   1.539       .  S
C61          C65   1.543       .  S
C61        C3941   1.568       .  S
C62          H69   1.081       .  S
C62          C63   1.370       .  D
C63          C64   1.545       .  S
C63        C3913   1.502       .  S
C64          C68   1.545       .  S
C64          C66   1.543       .  S
C64          H70   1.109       .  S
C65          H71   1.085       .  S
C65          C66   1.363       .  D
C66        C4200   1.500       .  S
C67          H72   1.086       .  S
C67          C68   1.370       .  D
C68        C3997   1.513       .  S
C73          C74   1.524       .  S
C73          C79   1.550       .  S
C73          C77   1.554       .  S
C73        C3885   1.560       .  S
C74          H81   1.087       .  S
C74          C75   1.355       .  D
C75          C76   1.549       .  S
C75        C3976   1.487       .  S
C76          C80   1.533       .  S
C76          C78   1.544       .  S
C76          H82   1.100       .  S
C77          H83   1.080       .  S
C77          C78   1.379       .  D
C78        C4116   1.524       .  S
C79          H84   1.083       .  S
C79          C80   1.369       .  D
C80        C3857   1.507       .  S
C85          C86   1.541       .  S
C85          C91   1.550       .  S
C85          C89   1.536       .  S
C85        C3829   1.565       .  S
C86          H93   1.084       .  S
C86          C87   1.365       .  D
C87          C88   1.541       .  S
C87        C3864   1.501       .  S
C88          C92   1.538       .  S
C88          C90   1.547       .  S
C88          H94   1.108       .  S
C89          H95   1.085       .  S
C89          C90   1.372       .  D
C90        C4060   1.511       .  S
C91          H96   1.082       .  S
C91          C92   1.368       .  D
C92        C3920   1.499       .  S
O97         C100   1.267       .  A
O97        Cd102   2.488       .  S
C98         O107   1.265       .  A
C98         O103   1.266       .  A
C98        C3717   1.497       .  S
O99         C105   1.266       .  A
O99        Cd102   2.473       .  S
C100        O108   1.264       .  A
C100       C3773   1.493       .  S
C101        O106   1.266       .  A
C101        O104   1.264       .  A
C101       C3808   1.494       .  S
Cd102       O109   2.471       .  S
Cd102       O108   2.456       .  S
Cd102       O107   2.481       .  S
Cd102       O103   2.480       .  S
Cd102       O106   2.475       .  S
Cd102       O104   2.472       .  S
C105        O109   1.266       .  A
C105       C3745   1.495       .  S
O110        C113   1.265       .  A
O110       Cd115   2.489       .  S
C111        O120   1.263       .  A
C111        O116   1.265       .  A
C111       C3801   1.494       .  S
O112        C118   1.267       .  A
O112       Cd115   2.480       .  S
C113        O121   1.265       .  A
C113       C3668   1.494       .  S
C114        O119   1.264       .  A
C114        O117   1.265       .  A
C114       C3640   1.494       .  S
Cd115       O122   2.458       .  S
Cd115       O121   2.476       .  S
Cd115       O120   2.469       .  S
Cd115       O116   2.483       .  S
Cd115       O119   2.471       .  S
Cd115       O117   2.485       .  S
C118        O122   1.266       .  A
C118       C3696   1.495       .  S
O123        C126   1.264       .  A
O123       Cd128   2.465       .  S
C124        O133   1.268       .  A
C124        O129   1.266       .  A
C124       C3752   1.493       .  S
O125        C131   1.264       .  A
O125       Cd128   2.481       .  S
C126        O134   1.263       .  A
C126       C3612   1.487       .  S
C127        O132   1.263       .  A
C127        O130   1.263       .  A
C127       C3556   1.483       .  S
Cd128       O135   2.462       .  S
Cd128       O134   2.457       .  S
Cd128       O133   2.472       .  S
Cd128       O129   2.446       .  S
Cd128       O132   2.467       .  S
Cd128       O130   2.472       .  S
C131        O135   1.264       .  A
C131       C3577   1.494       .  S
O136        C139   1.266       .  A
O136       Cd141   2.500       .  S
C137        O146   1.267       .  A
C137        O142   1.267       .  A
C137       C3661   1.496       .  S
O138        C144   1.266       .  A
O138       Cd141   2.478       .  S
C139        O147   1.262       .  A
C139       C3605   1.489       .  S
C140        O145   1.265       .  A
C140        O143   1.264       .  A
C140       C3493   1.489       .  S
Cd141       O148   2.456       .  S
Cd141       O147   2.443       .  S
Cd141       O146   2.470       .  S
Cd141       O142   2.463       .  S
Cd141       O145   2.475       .  S
Cd141       O143   2.461       .  S
C144        O148   1.264       .  A
C144       C3521   1.497       .  S
O149        C152   1.264       .  A
O149       Cd154   2.464       .  S
C150        O159   1.265       .  A
C150        O155   1.264       .  A
C150       C3437   1.494       .  S
O151        C157   1.266       .  A
O151       Cd154   2.475       .  S
C152        O160   1.265       .  A
C152       C3465   1.490       .  S
C153        O158   1.264       .  A
C153        O156   1.265       .  A
C153       C3409   1.494       .  S
Cd154       O161   2.463       .  S
Cd154       O160   2.482       .  S
Cd154       O159   2.478       .  S
Cd154       O155   2.466       .  S
Cd154       O158   2.474       .  S
Cd154       O156   2.492       .  S
C157        O161   1.264       .  A
C157       C3780   1.490       .  S
O162        C165   1.265       .  A
O162       Cd167   2.491       .  S
C163        O172   1.266       .  A
C163        O168   1.264       .  A
C163       C3381   1.504       .  S
O164        C170   1.266       .  A
O164       Cd167   2.483       .  S
C165        O173   1.264       .  A
C165       C3472   1.498       .  S
C166        O171   1.264       .  A
C166        O169   1.264       .  A
C166       C3360   1.502       .  S
Cd167       O174   2.483       .  S
Cd167       O173   2.476       .  S
Cd167       O172   2.491       .  S
Cd167       O168   2.482       .  S
Cd167       O171   2.499       .  S
Cd167       O169   2.488       .  S
C170        O174   1.265       .  A
C170       C3689   1.495       .  S
O175        C178   1.264       .  A
O175       Cd180   2.453       .  S
C176        O185   1.265       .  A
C176        O181   1.266       .  A
C176       C3584   1.488       .  S
O177        C183   1.266       .  A
O177       Cd180   2.476       .  S
C178        O186   1.266       .  A
C178       C3297   1.500       .  S
C179        O184   1.266       .  A
C179        O182   1.262       .  A
C179       C3444   1.492       .  S
Cd180       O187   2.478       .  S
Cd180       O186   2.478       .  S
Cd180       O185   2.446       .  S
Cd180       O181   2.474       .  S
Cd180       O184   2.488       .  S
Cd180       O182   2.460       .  S
C183        O187   1.265       .  A
C183       C3325   1.492       .  S
O188        C191   1.265       .  A
O188       Cd193   2.517       .  S
C189        O198   1.267       .  A
C189        O194   1.266       .  A
C189       C3332   1.493       .  S
O190        C196   1.265       .  A
O190       Cd193   2.478       .  S
C191        O199   1.261       .  A
C191       C3388   1.497       .  S
C192        O197   1.264       .  A
C192        O195   1.265       .  A
C192       C3269   1.490       .  S
Cd193       O200   2.467       .  S
Cd193       O199   2.466       .  S
Cd193       O198   2.482       .  S
Cd193       O194   2.471       .  S
Cd193       O197   2.492       .  S
Cd193       O195   2.489       .  S
C196        O200   1.265       .  A
C196       C3528   1.492       .  S
O201        C204   1.265       .  A
O201       Cd206   2.478       .  S
C202        O211   1.267       .  A
C202        O207   1.265       .  A
C202       C3213   1.493       .  S
O203        C209   1.265       .  A
O203       Cd206   2.486       .  S
C204        O212   1.264       .  A
C204       C3241   1.493       .  S
C205        O210   1.266       .  A
C205        O208   1.264       .  A
C205       C3185   1.495       .  S
Cd206       O213   2.481       .  S
Cd206       O212   2.447       .  S
Cd206       O211   2.483       .  S
Cd206       O207   2.469       .  S
Cd206       O210   2.488       .  S
Cd206       O208   2.458       .  S
C209        O213   1.265       .  A
C209       C3164   1.496   1_545  S
O214        C217   1.262       .  A
O214       Cd219   2.452       .  S
C215        O224   1.265       .  A
C215        O220   1.266       .  A
C215       C3136   1.489       .  S
O216        C222   1.267       .  A
O216       Cd219   2.497       .  S
C217        O225   1.266       .  A
C217       C4088   1.492       .  S
C218        O223   1.267       .  A
C218        O221   1.266       .  A
C218       C3108   1.494       .  S
Cd219       O226   2.425       .  S
Cd219       O225   2.490       .  S
Cd219       O224   2.455       .  S
Cd219       O220   2.485       .  S
Cd219       O223   2.482       .  S
Cd219       O221   2.459       .  S
C222        O226   1.262       .  A
C222       C3248   1.485       .  S
O227        C230   1.265       .  A
O227       Cd232   2.490       .  S
C228        O237   1.264       .  A
C228        O233   1.263       .  A
C228       C3220   1.494       .  S
O229        C235   1.265       .  A
O229       Cd232   2.467       .  S
C230        O238   1.265       .  A
C230       C3073   1.498       .  S
C231        O236   1.262       .  A
C231        O234   1.265       .  A
C231       C3024   1.496       .  S
Cd232       O239   2.476       .  S
Cd232       O238   2.483       .  S
Cd232       O237   2.491       .  S
Cd232       O233   2.478       .  S
Cd232       O236   2.476       .  S
Cd232       O234   2.498       .  S
C235        O239   1.266       .  A
C235       C3045   1.495       .  S
O240        C243   1.266       .  A
O240       Cd245   2.476       .  S
C241        O250   1.266       .  A
C241        O246   1.264       .  A
C241       C3101   1.495       .  S
O242        C248   1.265       .  A
O242       Cd245   2.482       .  S
C243        O251   1.266       .  A
C243       C3080   1.493       .  S
C244        O249   1.264       .  A
C244        O247   1.264       .  A
C244       C4172   1.500       .  S
Cd245       O252   2.468       .  S
Cd245       O251   2.468       .  S
Cd245       O250   2.490       .  S
Cd245       O246   2.471       .  S
Cd245       O249   2.483       .  S
Cd245       O247   2.490       .  S
C248        O252   1.265       .  A
C248       C2989   1.493       .  S
O253        C256   1.264       .  A
O253       Cd258   2.472       .  S
C254        O263   1.263       .  A
C254        O259   1.267       .  A
C254       C3052   1.496       .  S
O255        C261   1.265       .  A
O255       Cd258   2.473       .  S
C256        O264   1.266       .  A
C256       C2905   1.493       .  S
C257        O262   1.265       .  A
C257        O260   1.267       .  A
C257       C2940   1.497       .  S
Cd258       O265   2.472       .  S
Cd258       O264   2.499       .  S
Cd258       O263   2.447       .  S
Cd258       O259   2.500       .  S
Cd258       O262   2.469       .  S
Cd258       O260   2.483       .  S
C261        O265   1.264       .  A
C261       C2961   1.500       .  S
O266        C269   1.265       .  A
O266       Cd271   2.467       .  S
C267        O276   1.264       .  A
C267        O272   1.266       .  A
C267       C2996   1.488       .  S
O268        C274   1.267       .  A
O268       Cd271   2.480       .  S
C269        O277   1.266       .  A
C269       C4368   1.496       .  S
C270        O275   1.263       .  A
C270        O273   1.265       .  A
C270       C2877   1.491       .  S
Cd271       O278   2.455       .  S
Cd271       O277   2.491       .  S
Cd271       O276   2.454       .  S
Cd271       O272   2.476       .  S
Cd271       O275   2.467       .  S
Cd271       O273   2.499       .  S
C274        O278   1.264       .  A
C274       C2968   1.495       .  S
O279        C282   1.265       .  A
O279       Cd284   2.485       .  S
C280        O289   1.266       .  A
C280        O285   1.264       .  A
C280       C2933   1.492       .  S
O281        C287   1.267       .  A
O281       Cd284   2.485       .  S
C282        O290   1.264       .  A
C282       C2849   1.491       .  S
C283        O288   1.265       .  A
C283        O286   1.266       .  A
C283       C2828   1.505       .  S
Cd284       O291   2.470       .  S
Cd284       O290   2.455       .  S
Cd284       O289   2.485       .  S
Cd284       O285   2.471       .  S
Cd284       O288   2.491       .  S
Cd284       O286   2.509       .  S
C287        O291   1.264       .  A
C287       C3192   1.494       .  S
O292        C295   1.267       .  A
O292       Cd297   2.485       .  S
C293        O302   1.263       .  A
C293        O298   1.265       .  A
C293       C2884   1.493       .  S
O294        C300   1.266       .  A
O294       Cd297   2.494       .  S
C295        O303   1.266       .  A
C295       C2856   1.495       .  S
C296        O301   1.264       .  A
C296        O299   1.265       .  A
C296       C4256   1.501       .  S
Cd297       O304   2.457       .  S
Cd297       O303   2.461       .  S
Cd297       O302   2.480       .  S
Cd297       O298   2.484       .  S
Cd297       O301   2.457       .  S
Cd297       O299   2.488       .  S
C300        O304   1.265       .  A
C300       C3129   1.492       .  S
C305        C306   1.546       .  S
C305        C311   1.538       .  S
C305        C309   1.546       .  S
C305       C2912   1.565       .  S
C306        H313   1.082       .  S
C306        C307   1.368       .  D
C307        C308   1.545       .  S
C307       C2765   1.500       .  S
C308        C312   1.549       .  S
C308        C310   1.540       .  S
C308        H314   1.107       .  S
C309        H315   1.085       .  S
C309        C310   1.364       .  D
C310       C2737   1.504       .  S
C311        H316   1.085       .  S
C311        C312   1.372       .  D
C312       C2793   1.517       .  S
C317        C318   1.544       .  S
C317        C323   1.551       .  S
C317        C321   1.544       .  S
C317       C2821   1.567       .  S
C318        H325   1.085       .  S
C318        C319   1.361       .  D
C319        C320   1.543       .  S
C319       C2800   1.491       .  S
C320        C324   1.537       .  S
C320        C322   1.546       .  S
C320        H326   1.105       .  S
C321        H327   1.085       .  S
C321        C322   1.379       .  D
C322       C2681   1.522       .  S
C323        H328   1.082       .  S
C323        C324   1.367       .  D
C324       C2709   1.506       .  S
C329        C330   1.542       .  S
C329        C335   1.555       .  S
C329        C333   1.526       .  S
C329       C3017   1.556       .  S
C330        H337   1.079       .  S
C330        C331   1.369       .  D
C331        C332   1.547       .  S
C331       C2653   1.508       .  S
C332        C336   1.546       .  S
C332        C334   1.542       .  S
C332        H338   1.106       .  S
C333        H339   1.087       .  S
C333        C334   1.355       .  D
C334       C2625   1.485       .  S
C335        H340   1.084       .  S
C335        C336   1.379       .  D
C336       C2772   1.525       .  S
C341        C342   1.546       .  S
C341        C347   1.532       .  S
C341        C345   1.554       .  S
C341       C3157   1.567       .  S
C342        H349   1.085       .  S
C342        C343   1.374       .  D
C343        C344   1.540       .  S
C343       C2716   1.522       .  S
C344        C348   1.550       .  S
C344        C346   1.534       .  S
C344        H350   1.099       .  S
C345        H351   1.075       .  S
C345        C346   1.370       .  D
C346       C2597   1.510       .  S
C347        H352   1.087       .  S
C347        C348   1.358       .  D
C348       C2660   1.483       .  S
C353        C354   1.549       .  S
C353        C359   1.545       .  S
C353        C357   1.535       .  S
C353       C3500   1.562       .  S
C354        H361   1.083       .  S
C354        C355   1.367       .  D
C355        C356   1.542       .  S
C355       C2576   1.498       .  S
C356        C360   1.545       .  S
C356        C358   1.547       .  S
C356        H362   1.109       .  S
C357        H363   1.086       .  S
C357        C358   1.368       .  D
C358       C2688   1.508       .  S
C359        H364   1.083       .  S
C359        C360   1.367       .  D
C360       C2548   1.507       .  S
C365        C366   1.550       .  S
C365        C371   1.550       .  S
C365        C369   1.521       .  S
C365       C3633   1.555       .  S
C366        H373   1.081       .  S
C366        C367   1.373       .  D
C367        C368   1.542       .  S
C367       C2520   1.522       .  S
C368        C372   1.544       .  S
C368        C370   1.552       .  S
C368        H374   1.095       .  S
C369        H375   1.087       .  S
C369        C370   1.355       .  D
C370       C2604   1.485       .  S
C371        H376   1.080       .  S
C371        C372   1.375       .  D
C372       C2569   1.525       .  S
C377        C378   1.552       .  S
C377        C383   1.536       .  S
C377        C381   1.543       .  S
C377       C3276   1.563       .  S
C378        H385   1.080       .  S
C378        C379   1.369       .  D
C379        C380   1.537       .  S
C379       C2541   1.508       .  S
C380        C384   1.555       .  S
C380        C382   1.548       .  S
C380        H386   1.101       .  S
C381        H387   1.085       .  S
C381        C382   1.376       .  D
C382       C2744   1.527       .  S
C383        H388   1.086       .  S
C383        C384   1.359       .  D
C384       C2485   1.495       .  S
C389        C390   1.545       .  S
C389        C395   1.527       .  S
C389        C393   1.552       .  S
C389       C3353   1.556       .  S
C390        H397   1.081       .  S
C390        C391   1.372       .  D
C391        C392   1.552       .  S
C391       C2492   1.517       .  S
C392        C396   1.541       .  S
C392        C394   1.550       .  S
C392        H398   1.105       .  S
C393        H399   1.082       .  S
C393        C394   1.376       .  D
C394       C2632   1.525       .  S
C395        H400   1.086       .  S
C395        C396   1.355       .  D
C396       C2513   1.489       .  S
O401        C404   1.267       .  A
O401       Cd406   2.483       .  S
C402        O411   1.264       .  A
C402        O407   1.264       .  A
C402       C2436   1.492       .  S
O403        C409   1.264       .  A
O403       Cd406   2.484       .  S
C404        O412   1.267       .  A
C404       C2457   1.487       .  S
C405        O410   1.263       .  A
C405        O408   1.264       .  A
C405       C3892   1.490       .  S
Cd406       O413   2.471       .  S
Cd406       O412   2.473       .  S
Cd406       O411   2.472       .  S
Cd406       O407   2.470       .  S
Cd406       O410   2.490       .  S
Cd406       O408   2.476       .  S
C409        O413   1.262       .  A
C409       C2408   1.495       .  S
O414        C417   1.266       .  A
O414       Cd419   2.480       .  S
C415        O424   1.264       .  A
C415        O420   1.264       .  A
C415       C2464   1.493       .  S
O416        C422   1.265       .  A
O416       Cd419   2.451       .  S
C417        O425   1.265       .  A
C417       C2380   1.489       .  S
C418        O423   1.264       .  A
C418        O421   1.263       .  A
C418       C2345   1.485       .  S
Cd419       O426   2.492       .  S
Cd419       O425   2.468       .  S
Cd419       O424   2.485       .  S
Cd419       O420   2.479       .  S
Cd419       O423   2.481       .  S
Cd419       O421   2.461       .  S
C422        O426   1.268       .  A
C422       C2317   1.491       .  S
O427        C430   1.264       .  A
O427       Cd432   2.464       .  S
C428        O437   1.264       .  A
C428        O433   1.265       .  A
C428       C2289   1.491       .  S
O429        C435   1.266       .  A
O429       Cd432   2.481       .  S
C430        O438   1.266       .  A
C430       C2373   1.495       .  S
C431        O436   1.264       .  A
C431        O434   1.265       .  A
C431       C2240   1.492       .  S
Cd432       O439   2.448       .  S
Cd432       O438   2.486       .  S
Cd432       O437   2.457       .  S
Cd432       O433   2.477       .  S
Cd432       O436   2.471       .  S
Cd432       O434   2.477       .  S
C435        O439   1.264       .  A
C435       C2268   1.490       .  S
O440        C443   1.267       .  A
O440       Cd445   2.476       .  S
C441        O450   1.265       .  A
C441        O446   1.265       .  A
C441       C2429   1.491       .  S
O442        C448   1.265       .  A
O442       Cd445   2.503       .  S
C443        O451   1.264       .  A
C443       C2296   1.490       .  S
C444        O449   1.266       .  A
C444        O447   1.264       .  A
C444       C2205   1.492       .  S
Cd445       O452   2.483       .  S
Cd445       O451   2.465       .  S
Cd445       O450   2.468       .  S
Cd445       O446   2.482       .  S
Cd445       O449   2.473       .  S
Cd445       O447   2.468       .  S
C448        O452   1.265       .  A
C448       C4032   1.495       .  S
O453        C456   1.266       .  A
O453       Cd458   2.461       .  S
C454        O463   1.263       .  A
C454        O459   1.265       .  A
C454       C2184   1.498       .  S
O455        C461   1.265       .  A
O455       Cd458   2.463       .  S
C456        O464   1.265       .  A
C456       C2149   1.496       .  S
C457        O462   1.265       .  A
C457        O460   1.264       .  A
C457       C2128   1.491       .  S
Cd458       O465   2.468       .  S
Cd458       O464   2.476       .  S
Cd458       O463   2.461       .  S
Cd458       O459   2.500       .  S
Cd458       O462   2.474       .  S
Cd458       O460   2.457       .  S
C461        O465   1.265       .  A
C461       C2352   1.486       .  S
O466        C469   1.263       .  A
O466       Cd471   2.471       .  S
C467        O476   1.265       .  A
C467        O472   1.266       .  A
C467       C2401   1.494       .  S
O468        C474   1.265       .  A
O468       Cd471   2.485       .  S
C469        O477   1.266       .  A
C469       C3836   1.495       .  S
C470        O475   1.265       .  A
C470        O473   1.263       .  A
C470       C2100   1.492       .  S
Cd471       O478   2.472       .  S
Cd471       O477   2.509       .  S
Cd471       O476   2.455       .  S
Cd471       O472   2.476       .  S
Cd471       O475   2.481       .  S
Cd471       O473   2.475       .  S
C474        O478   1.266       .  A
C474       C2177   1.493       .  S
O479        C482   1.267       .  A
O479       Cd484   2.497       .  S
C480        O489   1.264       .  A
C480        O485   1.265       .  A
C480       C2156   1.488       .  S
O481        C487   1.265       .  A
O481       Cd484   2.475       .  S
C482        O490   1.264       .  A
C482       C2065   1.499       .  S
C483        O488   1.263       .  A
C483        O486   1.266       .  A
C483       C2044   1.489       .  S
Cd484       O491   2.436       .  S
Cd484       O490   2.465       .  S
Cd484       O489   2.478       .  S
Cd484       O485   2.465       .  S
Cd484       O488   2.450       .  S
Cd484       O486   2.470       .  S
C487        O491   1.264       .  A
C487       C2261   1.486       .  S
O492        C495   1.266       .  A
O492       Cd497   2.502       .  S
C493        O502   1.265       .  A
C493        O498   1.267       .  A
C493       C2093   1.493       .  S
O494        C500   1.267       .  A
O494       Cd497   2.484       .  S
C495        O503   1.264       .  A
C495       C2072   1.502       .  S
C496        O501   1.264       .  A
C496        O499   1.266       .  A
C496       C3948   1.503       .  S
Cd497       O504   2.449       .  S
Cd497       O503   2.473       .  S
Cd497       O502   2.473       .  S
Cd497       O498   2.473       .  S
Cd497       O501   2.477       .  S
Cd497       O499   2.511       .  S
C500        O504   1.265       .  A
C500       C2212   1.491       .  S
C505        C506   1.542       .  S
C505        C511   1.547       .  S
C505        C509   1.532       .  S
C505       C3416   1.555       .  S
C506        H513   1.085       .  S
C506        C507   1.361       .  D
C507        C508   1.540       .  S
C507       C2009   1.487       .  S
C508        C512   1.540       .  S
C508        C510   1.557       .  S
C508        H514   1.102       .  S
C509        H515   1.084       .  S
C509        C510   1.374       .  D
C510       C1953   1.528       .  S
C511        H516   1.080       .  S
C511        C512   1.366       .  D
C512       C1981   1.510       .  S
C517        C518   1.533       .  S
C517        C523   1.550       .  S
C517        C521   1.540       .  S
C517       C3304   1.555       .  S
C518        H525   1.086       .  S
C518        C519   1.370       .  D
C519        C520   1.547       .  S
C519       C1925   1.513       .  S
C520        C524   1.541       .  S
C520        C522   1.539       .  S
C520        H526   1.105       .  S
C521        H527   1.085       .  S
C521        C522   1.357       .  D
C522       C1897   1.482       .  S
C523        H528   1.081       .  S
C523        C524   1.372       .  D
C524       C2016   1.510       .  S
C529        C530   1.541       .  S
C529        C535   1.538       .  S
C529        C533   1.550       .  S
C529       C3724   1.564       .  S
C530        H537   1.085       .  S
C530        C531   1.371       .  D
C531        C532   1.542       .  S
C531       C1848   1.513       .  S
C532        C536   1.539       .  S
C532        C534   1.543       .  S
C532        H538   1.107       .  S
C533        H539   1.080       .  S
C533        C534   1.374       .  D
C534       C1869   1.505       .  S
C535        H540   1.086       .  S
C535        C536   1.356       .  D
C536       C1988   1.484       .  S
C541        C542   1.538       .  S
C541        C547   1.545       .  S
C541        C545   1.547       .  S
C541       C3549   1.563       .  S
C542        H549   1.086       .  S
C542        C543   1.368       .  D
C543        C544   1.543       .  S
C543       C1876   1.505       .  S
C544        C548   1.539       .  S
C544        C546   1.540       .  S
C544        H550   1.110       .  S
C545        H551   1.081       .  S
C545        C546   1.367       .  D
C546       C1813   1.497       .  S
C547        H552   1.085       .  S
C547        C548   1.366       .  D
C548       C1932   1.497       .  S
C553        C554   1.533       .  S
C553        C559   1.549       .  S
C553        C557   1.545       .  S
C553       C1785   1.561       .  S
C554        H561   1.085       .  S
C554        C555   1.368       .  D
C555        C556   1.550       .  S
C555       C1757   1.512       .  S
C556        C560   1.540       .  S
C556        C558   1.543       .  S
C556        H562   1.108       .  S
C557        H563   1.083       .  S
C557        C558   1.367       .  D
C558       C1841   1.496       .  S
C559        H564   1.084       .  S
C559        C560   1.367       .  D
C560       C1729   1.508       .  S
C565        C566   1.547       .  S
C565        C571   1.539       .  S
C565        C569   1.542       .  S
C565       C1701   1.564       .  S
C566        H573   1.079       .  S
C566        C567   1.372       .  D
C567        C568   1.547       .  S
C567       C1736   1.506       .  S
C568        C572   1.545       .  S
C568        C570   1.538       .  S
C568        H574   1.107       .  S
C569        H575   1.086       .  S
C569        C570   1.359       .  D
C570       C1960   1.490       .  S
C571        H576   1.084       .  S
C571        C572   1.370       .  D
C572       C1673   1.515       .  S
C577        C578   1.540       .  S
C577        C583   1.544       .  S
C577        C581   1.548       .  S
C577       C1645   1.564       .  S
C578        H585   1.086       .  S
C578        C579   1.359       .  D
C579        C580   1.538       .  S
C579       C1680   1.485       .  S
C580        C584   1.537       .  S
C580        C582   1.542       .  S
C580        H586   1.105       .  S
C581        H587   1.078       .  S
C581        C582   1.374       .  D
C582       C1904   1.508       .  S
C583        H588   1.085       .  S
C583        C584   1.368       .  D
C584       C1617   1.507       .  S
C589        C590   1.546       .  S
C589        C595   1.520       .  S
C589        C593   1.556       .  S
C589       C1589   1.556       .  S
C590        H597   1.083       .  S
C590        C591   1.373       .  D
C591        C592   1.546       .  S
C591       C1624   1.519       .  S
C592        C596   1.550       .  S
C592        C594   1.537       .  S
C592        H598   1.100       .  S
C593        H599   1.080       .  S
C593        C594   1.375       .  D
C594       C1820   1.513       .  S
C595        H600   1.087       .  S
C595        C596   1.352       .  D
C596       C1764   1.485       .  S
O601        C604   1.265       .  A
O601       Cd606   2.454       .  S
C602        O611   1.263       .  A
C602        O607   1.264       .  A
C602       C1568   1.496       .  S
O603        C609   1.267       .  A
O603       Cd606   2.494       .  S
C604        O612   1.266       .  A
C604       C1533   1.494       .  S
C605        O610   1.264       .  A
C605        O608   1.264       .  A
C605       C1477   1.489       .  S
Cd606       O613   2.450       .  S
Cd606       O612   2.479       .  S
Cd606       O611   2.473       .  S
Cd606       O607   2.495       .  S
Cd606       O610   2.473       .  S
Cd606       O608   2.469       .  S
C609        O613   1.265       .  A
C609       C1512   1.497       .  S
O614        C617   1.265       .  A
O614       Cd619   2.485       .  S
C615        O624   1.265       .  A
C615        O620   1.267       .  A
C615       C1561   1.496       .  S
O616        C622   1.265       .  A
O616       Cd619   2.478       .  S
C617        O625   1.264       .  A
C617       C1449   1.493       .  S
C618        O623   1.265       .  A
C618        O621   1.265       .  A
C618       C1792   1.499       .  S
Cd619       O626   2.462       .  S
Cd619       O625   2.480       .  S
Cd619       O624   2.463       .  S
Cd619       O620   2.477       .  S
Cd619       O623   2.476       .  S
Cd619       O621   2.472       .  S
C622        O626   1.264       .  A
C622       C1421   1.491       .  S
O627        C630   1.265       .  A
O627       Cd632   2.477       .  S
C628        O637   1.264       .  A
C628        O633   1.265       .  A
C628       C1400   1.494       .  S
O629        C635   1.266       .  A
O629       Cd632   2.465       .  S
C630        O638   1.265       .  A
C630       C1456   1.496       .  S
C631        O636   1.265       .  A
C631        O634   1.263       .  A
C631       C1372   1.498       .  S
Cd632       O639   2.484       .  S
Cd632       O638   2.473       .  S
Cd632       O637   2.464       .  S
Cd632       O633   2.467       .  S
Cd632       O636   2.485       .  S
Cd632       O634   2.469       .  S
C635        O639   1.267       .  A
C635       C1708   1.495       .  S
O640        C643   1.267       .  A
O640       Cd645   2.464       .  S
C641        O650   1.264       .  A
C641        O646   1.263       .  A
C641       C1540   1.491       .  S
O642        C648   1.265       .  A
O642       Cd645   2.488       .  S
C643        O651   1.267       .  A
C643       C1393   1.493       .  S
C644        O649   1.264       .  A
C644        O647   1.263       .  A
C644       C1309   1.494       .  S
Cd645       O652   2.447       .  S
Cd645       O651   2.444       .  S
Cd645       O650   2.466       .  S
Cd645       O646   2.476       .  S
Cd645       O649   2.487       .  S
Cd645       O647   2.470       .  S
C648        O652   1.262       .  A
C648       C1337   1.492       .  S
O653        C656   1.266       .  A
O653       Cd658   2.495       .  S
C654        O663   1.265       .  A
C654        O659   1.267       .  A
C654       C1253   1.487       .  S
O655        C661   1.266       .  A
O655       Cd658   2.486       .  S
C656        O664   1.263       .  A
C656       C1281   1.489       .  S
C657        O662   1.265       .  A
C657        O660   1.265       .  A
C657       C1596   1.498       .  S
Cd658       O665   2.448       .  S
Cd658       O664   2.451       .  S
Cd658       O663   2.455       .  S
Cd658       O659   2.462       .  S
Cd658       O662   2.465       .  S
Cd658       O660   2.472       .  S
C661        O665   1.263       .  A
C661       C1428   1.489       .  S
O666        C669   1.265       .  A
O666       Cd671   2.460       .  S
C667        O676   1.266       .  A
C667        O672   1.264       .  A
C667       C1232   1.494       .  S
O668        C674   1.265       .  A
O668       Cd671   2.493       .  S
C669        O677   1.266       .  A
C669       C1288   1.489       .  S
C670        O675   1.265       .  A
C670        O673   1.262       .  A
C670       C1197   1.490       .  S
Cd671       O678   2.463       .  S
Cd671       O677   2.463       .  S
Cd671       O676   2.485       .  S
Cd671       O672   2.462       .  S
Cd671       O675   2.491       .  S
Cd671       O673   2.449       .  S
C674        O678   1.263       .  A
C674       C1505   1.491       .  S
O679        C682   1.263       .  A
O679       Cd684   2.447       .  S
C680        O689   1.264       .  A
C680        O685   1.263       .  A
C680       C1169   1.493       .  S
O681        C687   1.267       .  A
O681       Cd684   2.476       .  S
C682        O690   1.266       .  A
C682       C1260   1.491       .  S
C683        O688   1.264       .  A
C683        O686   1.264       .  A
C683       C1652   1.490       .  S
Cd684       O691   2.448       .  S
Cd684       O690   2.488       .  S
Cd684       O689   2.471       .  S
Cd684       O685   2.461       .  S
Cd684       O688   2.464       .  S
Cd684       O686   2.486       .  S
C687        O691   1.266       .  A
C687       C1365   1.491       .  S
O692        C695   1.264       .  A
O692       Cd697   2.453       .  S
C693        O702   1.265       .  A
C693        O698   1.264       .  A
C693       C1344   1.485       .  S
O694        C700   1.266       .  A
O694       Cd697   2.463       .  S
C695        O703   1.266       .  A
C695       C1141   1.489       .  S
C696        O701   1.265       .  A
C696        O699   1.264       .  A
C696       C1225   1.496       .  S
Cd697       O704   2.467       .  S
Cd697       O703   2.481       .  S
Cd697       O702   2.463       .  S
Cd697       O698   2.459       .  S
Cd697       O701   2.489       .  S
Cd697       O699   2.473       .  S
C700        O704   1.265       .  A
C700       C1176   1.492       .  S
C705        C706   1.549       .  S
C705        C711   1.532       .  S
C705        C709   1.543       .  S
C705       C1204   1.556       .  S
C706        H713   1.080       .  S
C706        C707   1.368       .  D
C707        C708   1.537       .  S
C707       C1113   1.510       .  S
C708        C712   1.545       .  S
C708        C710   1.533       .  S
C708        H714   1.104       .  S
C709        H715   1.084       .  S
C709        C710   1.363       .  D
C710       C1057   1.482       .  S
C711        H716   1.086       .  S
C711        C712   1.371       .  D
C712       C1085   1.509       .  S
C717        C718   1.541       .  S
C717        C723   1.532       .  S
C717        C721   1.548       .  S
C717       C1484   1.549       .  S
C718        H725   1.085       .  S
C718        C719   1.362       .  D
C719        C720   1.543       .  S
C719       C1092   1.484       .  S
C720        C724   1.543       .  S
C720        C722   1.536       .  S
C720        H726   1.106       .  S
C721        H727   1.083       .  S
C721        C722   1.365       .  D
C722       C1008   1.498       .  S
C723        H728   1.086       .  S
C723        C724   1.369       .  D
C724       C1036   1.508       .  S
C729        C730   1.541       .  S
C729        C735   1.533       .  S
C729        C733   1.553       .  S
C729       C1316   1.560       .  S
C730        H737   1.085       .  S
C730        C731   1.373       .  D
C731        C732   1.542       .  S
C731        C973   1.521       .  S
C732        C736   1.550       .  S
C732        C734   1.533       .  S
C732        H738   1.100       .  S
C733        H739   1.078       .  S
C733        C734   1.369       .  D
C734       C1029   1.503       .  S
C735        H740   1.086       .  S
C735        C736   1.357       .  D
C736        C952   1.485       .  S
C741        C742   1.554       .  S
C741        C747   1.532       .  S
C741        C745   1.539       .  S
C741       C1148   1.557       .  S
C742        H749   1.081       .  S
C742        C743   1.369       .  D
C743        C744   1.531       .  S
C743        C980   1.501       .  S
C744        C748   1.553       .  S
C744        C746   1.549       .  S
C744        H750   1.101       .  S
C745        H751   1.084       .  S
C745        C746   1.374       .  D
C746        C917   1.528       .  S
C747        H752   1.086       .  S
C747        C748   1.356       .  D
C748       C1120   1.487       .  S
C753        C754   1.534       .  S
C753        C759   1.544       .  S
C753        C757   1.549       .  S
C753       C2324   1.559       .  S
C754        H761   1.086       .  S
C754        C755   1.362       .  D
C755        C756   1.540       .  S
C755        C889   1.498       .  S
C756        C760   1.542       .  S
C756        C758   1.550       .  S
C756        H762   1.108       .  S
C757        H763   1.084       .  S
C757        C758   1.377       .  D
C758        C945   1.521       .  S
C759        H764   1.080       .  S
C759        C760   1.364       .  D
C760        C868   1.499       .  S
C765        C766   1.532       .  S
C765        C771   1.549       .  S
C765        C769   1.555       .  S
C765       C2233   1.565       .  S
C766        H773   1.087       .  S
C766        C767   1.357       .  D
C767        C768   1.544       .  S
C767        C833   1.488       .  S
C768        C772   1.547       .  S
C768        C770   1.534       .  S
C768        H774   1.102       .  S
C769        H775   1.079       .  S
C769        C770   1.367       .  D
C770        C924   1.503       .  S
C771        H776   1.084       .  S
C771        C772   1.378       .  D
C772        C896   1.524       .  S
C777        C778   1.540       .  S
C777        C783   1.547       .  S
C777        C781   1.540       .  S
C777       C2121   1.563       .  S
C778        H785   1.086       .  S
C778        C779   1.365       .  D
C779        C780   1.543       .  S
C779        C861   1.496       .  S
C780        C784   1.540       .  S
C780        C782   1.543       .  S
C780        H786   1.109       .  S
C781        H787   1.086       .  S
C781        C782   1.368       .  D
C782       C1001   1.508       .  S
C783        H788   1.078       .  S
C783        C784   1.367       .  D
C784        C805   1.499       .  S
C789        C790   1.529       .  S
C789        C795   1.546       .  S
C789        C793   1.536       .  S
C789       C2037   1.544       .  S
C790        H797   1.086       .  S
C790        C791   1.359       .  D
C791        C792   1.538       .  S
C791        C840   1.503       .  S
C792        C796   1.559       .  S
C792        C794   1.540       .  S
C792        H798   1.098       .  S
C793        H799   1.085       .  S
C793        C794   1.354       .  D
C794        C812   1.483       .  S
C795        H800   1.081       .  S
C795        C796   1.384       .  D
C796       C1064   1.535       .  S
C801        C802   1.410       .  A
C801        C806   1.408       .  A
C801        C819   1.451       .  S
C802        C807   1.498       .  S
C802        C803   1.412       .  A
C803        C804   1.411       .  A
C803        C808   1.453       .  S
C804        C805   1.416       .  A
C804        C820   1.446       .  S
C805        C806   1.418       .  A
C806        C809   1.451       .  S
C807        C810   1.414       .  A
C807        C814   1.414       .  A
C808        N825   1.157       .  T
C809        N827   1.157       .  T
C810        C811   1.407       .  A
C810        C815   1.451       .  S
C811        C812   1.410       .  A
C811        C817   1.451       .  S
C812        C813   1.409       .  A
C813        C814   1.409       .  A
C813        C816   1.449       .  S
C814        C818   1.451       .  S
C815        N822   1.157       .  T
C816        N823   1.157       .  T
C817        N821   1.157       .  T
C818        N824   1.157       .  T
C819        N828   1.157       .  T
C820        N826   1.156       .  T
C829        C830   1.413       .  A
C829        C834   1.410       .  A
C829        C847   1.452       .  S
C830        C835   1.501       .  S
C830        C831   1.413       .  A
C831        C832   1.409       .  A
C831        C836   1.451       .  S
C832        C833   1.412       .  A
C832        C848   1.451       .  S
C833        C834   1.410       .  A
C834        C837   1.446       .  S
C835        C838   1.411       .  A
C835        C842   1.411       .  A
C836        N853   1.157       .  T
C837        N855   1.156       .  T
C838        C839   1.411       .  A
C838        C843   1.452       .  S
C839        C840   1.422       .  A
C839        C845   1.451       .  S
C840        C841   1.418       .  A
C841        C842   1.410       .  A
C841        C844   1.449       .  S
C842        C846   1.453       .  S
C843        N850   1.157       .  T
C844        N851   1.157       .  T
C845        N849   1.157       .  T
C846        N852   1.157       .  T
C847        N856   1.157       .  T
C848        N854   1.157       .  T
C857        C858   1.411       .  A
C857        C862   1.410       .  A
C857        C875   1.451       .  S
C858        C863   1.501       .  S
C858        C859   1.413       .  A
C859        C860   1.413       .  A
C859        C864   1.451       .  S
C860        C861   1.413       .  A
C860        C876   1.449       .  S
C861        C862   1.419       .  A
C862        C865   1.452       .  S
C863        C866   1.412       .  A
C863        C870   1.410       .  A
C864        N881   1.157       .  T
C865        N883   1.157       .  T
C866        C867   1.412       .  A
C866        C871   1.452       .  S
C867        C868   1.415       .  A
C867        C873   1.448       .  S
C868        C869   1.420       .  A
C869        C870   1.411       .  A
C869        C872   1.452       .  S
C870        C874   1.451       .  S
C871        N878   1.157       .  T
C872        N879   1.157       .  T
C873        N877   1.156       .  T
C874        N880   1.157       .  T
C875        N884   1.157       .  T
C876        N882   1.157       .  T
C885        C886   1.409       .  A
C885        C890   1.412       .  A
C885        C903   1.450       .  S
C886        C891   1.499       .  S
C886        C887   1.410       .  A
C887        C888   1.412       .  A
C887        C892   1.451       .  S
C888        C889   1.415       .  A
C888        C904   1.449       .  S
C889        C890   1.419       .  A
C890        C893   1.451       .  S
C891        C894   1.405       .  A
C891        C898   1.404       .  A
C892        N909   1.157       .  T
C893        N911   1.157       .  T
C894        C895   1.415       .  A
C894        C899   1.454       .  S
C895        C896   1.430       .  A
C895        C901   1.448       .  S
C896        C897   1.428       .  A
C897        C898   1.412       .  A
C897        C900   1.452       .  S
C898        C902   1.451       .  S
C899        N906   1.157       .  T
C900        N907   1.157       .  T
C901        N905   1.158       .  T
C902        N908   1.157       .  T
C903        N912   1.157       .  T
C904        N910   1.157       .  T
C913        C914   1.404       .  A
C913        C918   1.415       .  A
C913        C931   1.454       .  S
C914        C919   1.499       .  S
C914        C915   1.403       .  A
C915        C916   1.414       .  A
C915        C920   1.453       .  S
C916        C917   1.434       .  A
C916        C932   1.451       .  S
C917        C918   1.430       .  A
C918        C921   1.447       .  S
C919        C922   1.407       .  A
C919        C926   1.407       .  A
C920        N937   1.157       .  T
C921        N939   1.158       .  T
C922        C923   1.412       .  A
C922        C927   1.451       .  S
C923        C924   1.418       .  A
C923        C929   1.447       .  S
C924        C925   1.419       .  A
C925        C926   1.413       .  A
C925        C928   1.447       .  S
C926        C930   1.452       .  S
C927        N934   1.157       .  T
C928        N935   1.156       .  T
C929        N933   1.156       .  T
C930        N936   1.157       .  T
C931        N940   1.157       .  T
C932        N938   1.158       .  T
C941        C942   1.404       .  A
C941        C946   1.414       .  A
C941        C959   1.454       .  S
C942        C947   1.498       .  S
C942        C943   1.404       .  A
C943        C944   1.413       .  A
C943        C948   1.454       .  S
C944        C945   1.428       .  A
C944        C960   1.447       .  S
C945        C946   1.428       .  A
C946        C949   1.446       .  S
C947        C950   1.412       .  A
C947        C954   1.413       .  A
C948        N965   1.157       .  T
C949        N967   1.156       .  T
C950        C951   1.407       .  A
C950        C955   1.450       .  S
C951        C952   1.408       .  A
C951        C957   1.450       .  S
C952        C953   1.412       .  A
C953        C954   1.411       .  A
C953        C956   1.451       .  S
C954        C958   1.450       .  S
C955        N962   1.157       .  T
C956        N963   1.157       .  T
C957        N961   1.157       .  T
C958        N964   1.157       .  T
C959        N968   1.157       .  T
C960        N966   1.157       .  T
C969        C970   1.404       .  A
C969        C974   1.411       .  A
C969        C987   1.452       .  S
C970        C975   1.495       .  S
C970        C971   1.404       .  A
C971        C972   1.414       .  A
C971        C976   1.454       .  S
C972        C973   1.430       .  A
C972        C988   1.447       .  S
C973        C974   1.429       .  A
C974        C977   1.451       .  S
C975        C978   1.407       .  A
C975        C982   1.407       .  A
C976        N993   1.157       .  T
C977        N995   1.157       .  T
C978        C979   1.412       .  A
C978        C983   1.451       .  S
C979        C980   1.418       .  A
C979        C985   1.448       .  S
C980        C981   1.418       .  A
C981        C982   1.410       .  A
C981        C984   1.445       .  S
C982        C986   1.453       .  S
C983        N990   1.157       .  T
C984        N991   1.156       .  T
C985        N989   1.156       .  T
C986        N992   1.157       .  T
C987        N996   1.157       .  T
C988        N994   1.158       .  T
C997        C998   1.406       .  A
C997       C1002   1.412       .  A
C997       C1015   1.452       .  S
C998       C1003   1.497       .  S
C998        C999   1.407       .  A
C999       C1000   1.414       .  A
C999       C1004   1.452       .  S
C1000      C1001   1.421       .  A
C1000      C1016   1.448       .  S
C1001      C1002   1.423       .  A
C1002      C1005   1.447       .  S
C1003      C1006   1.408       .  A
C1003      C1010   1.410       .  A
C1004      N1021   1.157       .  T
C1005      N1023   1.156       .  T
C1006      C1007   1.409       .  A
C1006      C1011   1.452       .  S
C1007      C1008   1.415       .  A
C1007      C1013   1.448       .  S
C1008      C1009   1.418       .  A
C1009      C1010   1.413       .  A
C1009      C1012   1.450       .  S
C1010      C1014   1.450       .  S
C1011      N1018   1.157       .  T
C1012      N1019   1.158       .  T
C1013      N1017   1.156       .  T
C1014      N1020   1.157       .  T
C1015      N1024   1.157       .  T
C1016      N1022   1.157       .  T
C1025      C1026   1.406       .  A
C1025      C1030   1.409       .  A
C1025      C1043   1.453       .  S
C1026      C1031   1.490       .  S
C1026      C1027   1.404       .  A
C1027      C1028   1.410       .  A
C1027      C1032   1.452       .  S
C1028      C1029   1.421       .  A
C1028      C1044   1.448       .  S
C1029      C1030   1.420       .  A
C1030      C1033   1.446       .  S
C1031      C1034   1.403       .  A
C1031      C1038   1.405       .  A
C1032      N1049   1.157       .  T
C1033      N1051   1.156       .  T
C1034      C1035   1.408       .  A
C1034      C1039   1.452       .  S
C1035      C1036   1.426       .  A
C1035      C1041   1.452       .  S
C1036      C1037   1.424       .  A
C1037      C1038   1.411       .  A
C1037      C1040   1.447       .  S
C1038      C1042   1.453       .  S
C1039      N1046   1.157       .  T
C1040      N1047   1.157       .  T
C1041      N1045   1.157       .  T
C1042      N1048   1.157       .  T
C1043      N1052   1.157       .  T
C1044      N1050   1.156       .  T
C1053      C1054   1.408       .  A
C1053      C1058   1.408       .  A
C1053      C1071   1.451       .  S
C1054      C1059   1.491       .  S
C1054      C1055   1.411       .  A
C1055      C1056   1.408       .  A
C1055      C1060   1.451       .  S
C1056      C1057   1.410       .  A
C1056      C1072   1.449       .  S
C1057      C1058   1.415       .  A
C1058      C1061   1.450       .  S
C1059      C1062   1.397       .  A
C1059      C1066   1.400       .  A
C1060      N1077   1.157       .  T
C1061      N1079   1.157       .  T
C1062      C1063   1.411       .  A
C1062      C1067   1.456       .  S
C1063      C1064   1.436       .  A
C1063      C1069   1.446       .  S
C1064      C1065   1.439       .  A
C1065      C1066   1.415       .  A
C1065      C1068   1.448       .  S
C1066      C1070   1.455       .  S
C1067      N1074   1.157       .  T
C1068      N1075   1.158       .  T
C1069      N1073   1.156       .  T
C1070      N1076   1.157       .  T
C1071      N1080   1.157       .  T
C1072      N1078   1.157       .  T
C1081      C1082   1.408       .  A
C1081      C1086   1.409       .  A
C1081      C1099   1.452       .  S
C1082      C1087   1.498       .  S
C1082      C1083   1.409       .  A
C1083      C1084   1.412       .  A
C1083      C1088   1.454       .  S
C1084      C1085   1.424       .  A
C1084      C1100   1.447       .  S
C1085      C1086   1.423       .  A
C1086      C1089   1.451       .  S
C1087      C1090   1.413       .  A
C1087      C1094   1.413       .  A
C1088      N1105   1.157       .  T
C1089      N1107   1.157       .  T
C1090      C1091   1.410       .  A
C1090      C1095   1.451       .  S
C1091      C1092   1.410       .  A
C1091      C1097   1.447       .  S
C1092      C1093   1.413       .  A
C1093      C1094   1.408       .  A
C1093      C1096   1.452       .  S
C1094      C1098   1.451       .  S
C1095      N1102   1.157       .  T
C1096      N1103   1.157       .  T
C1097      N1101   1.156       .  T
C1098      N1104   1.157       .  T
C1099      N1108   1.157       .  T
C1100      N1106   1.157       .  T
C1109      C1110   1.409       .  A
C1109      C1114   1.412       .  A
C1109      C1127   1.452       .  S
C1110      C1115   1.500       .  S
C1110      C1111   1.408       .  A
C1111      C1112   1.410       .  A
C1111      C1116   1.453       .  S
C1112      C1113   1.421       .  A
C1112      C1128   1.449       .  S
C1113      C1114   1.424       .  A
C1114      C1117   1.451       .  S
C1115      C1118   1.414       .  A
C1115      C1122   1.414       .  A
C1116      N1133   1.157       .  T
C1117      N1135   1.158       .  T
C1118      C1119   1.411       .  A
C1118      C1123   1.451       .  S
C1119      C1120   1.413       .  A
C1119      C1125   1.451       .  S
C1120      C1121   1.408       .  A
C1121      C1122   1.409       .  A
C1121      C1124   1.450       .  S
C1122      C1126   1.450       .  S
C1123      N1130   1.157       .  T
C1124      N1131   1.157       .  T
C1125      N1129   1.157       .  T
C1126      N1132   1.157       .  T
C1127      N1136   1.157       .  T
C1128      N1134   1.157       .  T
C1137      C1138   1.411       .  A
C1137      C1142   1.412       .  A
C1137      C1155   1.451       .  S
C1138      C1143   1.499       .  S
C1138      C1139   1.411       .  A
C1139      C1140   1.410       .  A
C1139      C1144   1.451       .  S
C1140      C1141   1.416       .  A
C1140      C1156   1.452       .  S
C1141      C1142   1.417       .  A
C1142      C1145   1.451       .  S
C1143      C1146   1.406       .  A
C1143      C1150   1.406       .  A
C1144      N1161   1.157       .  T
C1145      N1163   1.157       .  T
C1146      C1147   1.411       .  A
C1146      C1151   1.452       .  S
C1147      C1148   1.430       .  A
C1147      C1153   1.453       .  S
C1148      C1149   1.428       .  A
C1149      C1150   1.414       .  A
C1149      C1152   1.447       .  S
C1150      C1154   1.453       .  S
C1151      N1158   1.157       .  T
C1152      N1159   1.157       .  T
C1153      N1157   1.158       .  T
C1154      N1160   1.157       .  T
C1155      N1164   1.157       .  T
C1156      N1162   1.157       .  T
C1165      C1166   1.410       .  A
C1165      C1170   1.410       .  A
C1165      C1183   1.452       .  S
C1166      C1171   1.496       .  S
C1166      C1167   1.409       .  A
C1167      C1168   1.411       .  A
C1167      C1172   1.451       .  S
C1168      C1169   1.420       .  A
C1168      C1184   1.451       .  S
C1169      C1170   1.418       .  A
C1170      C1173   1.451       .  S
C1171      C1174   1.409       .  A
C1171      C1178   1.410       .  A
C1172      N1189   1.157       .  T
C1173      N1191   1.157       .  T
C1174      C1175   1.410       .  A
C1174      C1179   1.451       .  S
C1175      C1176   1.417       .  A
C1175      C1181   1.451       .  S
C1176      C1177   1.419       .  A
C1177      C1178   1.411       .  A
C1177      C1180   1.451       .  S
C1178      C1182   1.452       .  S
C1179      N1186   1.157       .  T
C1180      N1187   1.157       .  T
C1181      N1185   1.157       .  T
C1182      N1188   1.157       .  T
C1183      N1192   1.157       .  T
C1184      N1190   1.158       .  T
C1193      C1194   1.410       .  A
C1193      C1198   1.412       .  A
C1193      C1211   1.451       .  S
C1194      C1199   1.497       .  S
C1194      C1195   1.410       .  A
C1195      C1196   1.409       .  A
C1195      C1200   1.451       .  S
C1196      C1197   1.417       .  A
C1196      C1212   1.451       .  S
C1197      C1198   1.417       .  A
C1198      C1201   1.451       .  S
C1199      C1202   1.406       .  A
C1199      C1206   1.405       .  A
C1200      N1217   1.157       .  T
C1201      N1219   1.157       .  T
C1202      C1203   1.410       .  A
C1202      C1207   1.452       .  S
C1203      C1204   1.429       .  A
C1203      C1209   1.451       .  S
C1204      C1205   1.430       .  A
C1205      C1206   1.414       .  A
C1205      C1208   1.448       .  S
C1206      C1210   1.453       .  S
C1207      N1214   1.157       .  T
C1208      N1215   1.157       .  T
C1209      N1213   1.158       .  T
C1210      N1216   1.157       .  T
C1211      N1220   1.157       .  T
C1212      N1218   1.157       .  T
C1221      C1222   1.410       .  A
C1221      C1226   1.414       .  A
C1221      C1239   1.450       .  S
C1222      C1227   1.500   1_655  S
C1222      C1223   1.410       .  A
C1223      C1224   1.411       .  A
C1223      C1228   1.452       .  S
C1224      C1225   1.419       .  A
C1224      C1240   1.451       .  S
C1225      C1226   1.418       .  A
C1226      C1229   1.451       .  S
C1227      C1230   1.411       .  A
C1227      C1234   1.410       .  A
C1228      N1245   1.157   1_655  T
C1229      N1247   1.157       .  T
C1230      C1231   1.414       .  A
C1230      C1235   1.450       .  S
C1231      C1232   1.417       .  A
C1231      C1237   1.451       .  S
C1232      C1233   1.419       .  A
C1233      C1234   1.411       .  A
C1233      C1236   1.451       .  S
C1234      C1238   1.451       .  S
C1235      N1242   1.157       .  T
C1236      N1243   1.157       .  T
C1237      N1241   1.157       .  T
C1238      N1244   1.157       .  T
C1239      N1248   1.157       .  T
C1240      N1246   1.157       .  T
C1249      C1250   1.409       .  A
C1249      C1254   1.412       .  A
C1249      C1267   1.450       .  S
C1250      C1255   1.494       .  S
C1250      C1251   1.410       .  A
C1251      C1252   1.408       .  A
C1251      C1256   1.452       .  S
C1252      C1253   1.416       .  A
C1252      C1268   1.451       .  S
C1253      C1254   1.416       .  A
C1254      C1257   1.451       .  S
C1255      C1258   1.408       .  A
C1255      C1262   1.410       .  A
C1256      N1273   1.157       .  T
C1257      N1275   1.157       .  T
C1258      C1259   1.410       .  A
C1258      C1263   1.451       .  S
C1259      C1260   1.418       .  A
C1259      C1265   1.451       .  S
C1260      C1261   1.418       .  A
C1261      C1262   1.411       .  A
C1261      C1264   1.451       .  S
C1262      C1266   1.451       .  S
C1263      N1270   1.157       .  T
C1264      N1271   1.157       .  T
C1265      N1269   1.157       .  T
C1266      N1272   1.157       .  T
C1267      N1276   1.157       .  T
C1268      N1274   1.157       .  T
C1277      C1278   1.411       .  A
C1277      C1282   1.409       .  A
C1277      C1295   1.452       .  S
C1278      C1283   1.498       .  S
C1278      C1279   1.412       .  A
C1279      C1280   1.413       .  A
C1279      C1284   1.450       .  S
C1280      C1281   1.416       .  A
C1280      C1296   1.451       .  S
C1281      C1282   1.415       .  A
C1282      C1285   1.452       .  S
C1283      C1286   1.411       .  A
C1283      C1290   1.411       .  A
C1284      N1301   1.157       .  T
C1285      N1303   1.157       .  T
C1286      C1287   1.411       .  A
C1286      C1291   1.451       .  S
C1287      C1288   1.416       .  A
C1287      C1293   1.451       .  S
C1288      C1289   1.416       .  A
C1289      C1290   1.411       .  A
C1289      C1292   1.451       .  S
C1290      C1294   1.451       .  S
C1291      N1298   1.157       .  T
C1292      N1299   1.157       .  T
C1293      N1297   1.157       .  T
C1294      N1300   1.157       .  T
C1295      N1304   1.157       .  T
C1296      N1302   1.157       .  T
C1305      C1306   1.409       .  A
C1305      C1310   1.411   1_545  A
C1305      C1323   1.451       .  S
C1306      C1311   1.497       .  S
C1306      C1307   1.409   1_545  A
C1307      C1308   1.412       .  A
C1307      C1312   1.451       .  S
C1308      C1309   1.419       .  A
C1308      C1324   1.451       .  S
C1309      C1310   1.418       .  A
C1310      C1313   1.451   1_565  S
C1311      C1314   1.403       .  A
C1311      C1318   1.404       .  A
C1312      N1329   1.157       .  T
C1313      N1331   1.157       .  T
C1314      C1315   1.413       .  A
C1314      C1319   1.452       .  S
C1315      C1316   1.433       .  A
C1315      C1321   1.453       .  S
C1316      C1317   1.431       .  A
C1317      C1318   1.413       .  A
C1317      C1320   1.446       .  S
C1318      C1322   1.454       .  S
C1319      N1326   1.157       .  T
C1320      N1327   1.157       .  T
C1321      N1325   1.157       .  T
C1322      N1328   1.157   1_545  T
C1323      N1332   1.157       .  T
C1324      N1330   1.157       .  T
C1333      C1334   1.408       .  A
C1333      C1338   1.412       .  A
C1333      C1351   1.451       .  S
C1334      C1339   1.492       .  S
C1334      C1335   1.407       .  A
C1335      C1336   1.408       .  A
C1335      C1340   1.452       .  S
C1336      C1337   1.419       .  A
C1336      C1352   1.451       .  S
C1337      C1338   1.419       .  A
C1338      C1341   1.451       .  S
C1339      C1342   1.408       .  A
C1339      C1346   1.409       .  A
C1340      N1357   1.157       .  T
C1341      N1359   1.157       .  T
C1342      C1343   1.410       .  A
C1342      C1347   1.450       .  S
C1343      C1344   1.416       .  A
C1343      C1349   1.451       .  S
C1344      C1345   1.415       .  A
C1345      C1346   1.409       .  A
C1345      C1348   1.450       .  S
C1346      C1350   1.452       .  S
C1347      N1354   1.157       .  T
C1348      N1355   1.157       .  T
C1349      N1353   1.157       .  T
C1350      N1356   1.157       .  T
C1351      N1360   1.157       .  T
C1352      N1358   1.157       .  T
C1361      C1362   1.410       .  A
C1361      C1366   1.411       .  A
C1361      C1379   1.451       .  S
C1362      C1367   1.497       .  S
C1362      C1363   1.409       .  A
C1363      C1364   1.412       .  A
C1363      C1368   1.451       .  S
C1364      C1365   1.418       .  A
C1364      C1380   1.451       .  S
C1365      C1366   1.417       .  A
C1366      C1369   1.452       .  S
C1367      C1370   1.408       .  A
C1367      C1374   1.409       .  A
C1368      N1385   1.157       .  T
C1369      N1387   1.157       .  T
C1370      C1371   1.412       .  A
C1370      C1375   1.451       .  S
C1371      C1372   1.420       .  A
C1371      C1377   1.451       .  S
C1372      C1373   1.421       .  A
C1373      C1374   1.413       .  A
C1373      C1376   1.452       .  S
C1374      C1378   1.452       .  S
C1375      N1382   1.157       .  T
C1376      N1383   1.158       .  T
C1377      N1381   1.157       .  T
C1378      N1384   1.157       .  T
C1379      N1388   1.157       .  T
C1380      N1386   1.157       .  T
C1389      C1390   1.410       .  A
C1389      C1394   1.413       .  A
C1389      C1407   1.451       .  S
C1390      C1395   1.497       .  S
C1390      C1391   1.410       .  A
C1391      C1392   1.409       .  A
C1391      C1396   1.452       .  S
C1392      C1393   1.419       .  A
C1392      C1408   1.452       .  S
C1393      C1394   1.419       .  A
C1394      C1397   1.451       .  S
C1395      C1398   1.410       .  A
C1395      C1402   1.409       .  A
C1396      N1413   1.157       .  T
C1397      N1415   1.157       .  T
C1398      C1399   1.412       .  A
C1398      C1403   1.451       .  S
C1399      C1400   1.419       .  A
C1399      C1405   1.451       .  S
C1400      C1401   1.420       .  A
C1401      C1402   1.410       .  A
C1401      C1404   1.451       .  S
C1402      C1406   1.452       .  S
C1403      N1410   1.157       .  T
C1404      N1411   1.157       .  T
C1405      N1409   1.158       .  T
C1406      N1412   1.157       .  T
C1407      N1416   1.157       .  T
C1408      N1414   1.158       .  T
C1417      C1418   1.409       .  A
C1417      C1422   1.412       .  A
C1417      C1435   1.450       .  S
C1418      C1423   1.496       .  S
C1418      C1419   1.410       .  A
C1419      C1420   1.410       .  A
C1419      C1424   1.451       .  S
C1420      C1421   1.418       .  A
C1420      C1436   1.452       .  S
C1421      C1422   1.417       .  A
C1422      C1425   1.451       .  S
C1423      C1426   1.410       .  A
C1423      C1430   1.409       .  A
C1424      N1441   1.157       .  T
C1425      N1443   1.157       .  T
C1426      C1427   1.412       .  A
C1426      C1431   1.450       .  S
C1427      C1428   1.417       .  A
C1427      C1433   1.451       .  S
C1428      C1429   1.417       .  A
C1429      C1430   1.410       .  A
C1429      C1432   1.452       .  S
C1430      C1434   1.451       .  S
C1431      N1438   1.157       .  T
C1432      N1439   1.157       .  T
C1433      N1437   1.157       .  T
C1434      N1440   1.157       .  T
C1435      N1444   1.157       .  T
C1436      N1442   1.158       .  T
C1445      C1446   1.411       .  A
C1445      C1450   1.412       .  A
C1445      C1463   1.451       .  S
C1446      C1451   1.501       .  S
C1446      C1447   1.411       .  A
C1447      C1448   1.413       .  A
C1447      C1452   1.450       .  S
C1448      C1449   1.417       .  A
C1448      C1464   1.451       .  S
C1449      C1450   1.416       .  A
C1450      C1453   1.451       .  S
C1451      C1454   1.411       .  A
C1451      C1458   1.410       .  A
C1452      N1469   1.157       .  T
C1453      N1471   1.157       .  T
C1454      C1455   1.414       .  A
C1454      C1459   1.450       .  S
C1455      C1456   1.418       .  A
C1455      C1461   1.451       .  S
C1456      C1457   1.419       .  A
C1457      C1458   1.412       .  A
C1457      C1460   1.452       .  S
C1458      C1462   1.451       .  S
C1459      N1466   1.157       .  T
C1460      N1467   1.158       .  T
C1461      N1465   1.157       .  T
C1462      N1468   1.157       .  T
C1463      N1472   1.157       .  T
C1464      N1470   1.157       .  T
C1473      C1474   1.408       .  A
C1473      C1478   1.410       .  A
C1473      C1491   1.451   1_565  S
C1474      C1479   1.493   1_565  S
C1474      C1475   1.409       .  A
C1475      C1476   1.410       .  A
C1475      C1480   1.451       .  S
C1476      C1477   1.417       .  A
C1476      C1492   1.451       .  S
C1477      C1478   1.417       .  A
C1478      C1481   1.450       .  S
C1479      C1482   1.405       .  A
C1479      C1486   1.405       .  A
C1480      N1497   1.157       .  T
C1481      N1499   1.157       .  T
C1482      C1483   1.411       .  A
C1482      C1487   1.452       .  S
C1483      C1484   1.427       .  A
C1483      C1489   1.451       .  S
C1484      C1485   1.427       .  A
C1485      C1486   1.410       .  A
C1485      C1488   1.450       .  S
C1486      C1490   1.452   1_545  S
C1487      N1494   1.157       .  T
C1488      N1495   1.158   1_545  T
C1489      N1493   1.157       .  T
C1490      N1496   1.157       .  T
C1491      N1500   1.157       .  T
C1492      N1498   1.157       .  T
C1501      C1502   1.410       .  A
C1501      C1506   1.411       .  A
C1501      C1519   1.450       .  S
C1502      C1507   1.498       .  S
C1502      C1503   1.411       .  A
C1503      C1504   1.412       .  A
C1503      C1508   1.451       .  S
C1504      C1505   1.416       .  A
C1504      C1520   1.451       .  S
C1505      C1506   1.417       .  A
C1506      C1509   1.452       .  S
C1507      C1510   1.408       .  A
C1507      C1514   1.410       .  A
C1508      N1525   1.157       .  T
C1509      N1527   1.157       .  T
C1510      C1511   1.410       .  A
C1510      C1515   1.452       .  S
C1511      C1512   1.420       .  A
C1511      C1517   1.452       .  S
C1512      C1513   1.420       .  A
C1513      C1514   1.415       .  A
C1513      C1516   1.450       .  S
C1514      C1518   1.450       .  S
C1515      N1522   1.157       .  T
C1516      N1523   1.157       .  T
C1517      N1521   1.157       .  T
C1518      N1524   1.157       .  T
C1519      N1528   1.157       .  T
C1520      N1526   1.157       .  T
C1529      C1530   1.409       .  A
C1529      C1534   1.412       .  A
C1529      C1547   1.451       .  S
C1530      C1535   1.496   1_455  S
C1530      C1531   1.409       .  A
C1531      C1532   1.410       .  A
C1531      C1536   1.451       .  S
C1532      C1533   1.419       .  A
C1532      C1548   1.452       .  S
C1533      C1534   1.419       .  A
C1534      C1537   1.450       .  S
C1535      C1538   1.410       .  A
C1535      C1542   1.410       .  A
C1536      N1553   1.157       .  T
C1537      N1555   1.157       .  T
C1538      C1539   1.409       .  A
C1538      C1543   1.452   1_655  S
C1539      C1540   1.418       .  A
C1539      C1545   1.452       .  S
C1540      C1541   1.418       .  A
C1541      C1542   1.413       .  A
C1541      C1544   1.451       .  S
C1542      C1546   1.450       .  S
C1543      N1550   1.157       .  T
C1544      N1551   1.157       .  T
C1545      N1549   1.157       .  T
C1546      N1552   1.157   1_665  T
C1547      N1556   1.157       .  T
C1548      N1554   1.157       .  T
C1557      C1558   1.410       .  A
C1557      C1562   1.413       .  A
C1557      C1575   1.450       .  S
C1558      C1563   1.499       .  S
C1558      C1559   1.410       .  A
C1559      C1560   1.412       .  A
C1559      C1564   1.451       .  S
C1560      C1561   1.419       .  A
C1560      C1576   1.452       .  S
C1561      C1562   1.418       .  A
C1562      C1565   1.451       .  S
C1563      C1566   1.410       .  A
C1563      C1570   1.410       .  A
C1564      N1581   1.157       .  T
C1565      N1583   1.157       .  T
C1566      C1567   1.411       .  A
C1566      C1571   1.451       .  S
C1567      C1568   1.418       .  A
C1567      C1573   1.451       .  S
C1568      C1569   1.419       .  A
C1569      C1570   1.414       .  A
C1569      C1572   1.451       .  S
C1570      C1574   1.450       .  S
C1571      N1578   1.157       .  T
C1572      N1579   1.157       .  T
C1573      N1577   1.157       .  T
C1574      N1580   1.157       .  T
C1575      N1584   1.157       .  T
C1576      N1582   1.158       .  T
C1585      C1586   1.404       .  A
C1585      C1590   1.411       .  A
C1585      C1603   1.452       .  S
C1586      C1591   1.497       .  S
C1586      C1587   1.406       .  A
C1587      C1588   1.414       .  A
C1587      C1592   1.452       .  S
C1588      C1589   1.429       .  A
C1588      C1604   1.449       .  S
C1589      C1590   1.431       .  A
C1590      C1593   1.452       .  S
C1591      C1594   1.407       .  A
C1591      C1598   1.409       .  A
C1592      N1609   1.157       .  T
C1593      N1611   1.158       .  T
C1594      C1595   1.411       .  A
C1594      C1599   1.451       .  S
C1595      C1596   1.421       .  A
C1595      C1601   1.451       .  S
C1596      C1597   1.421       .  A
C1597      C1598   1.412       .  A
C1597      C1600   1.451       .  S
C1598      C1602   1.452       .  S
C1599      N1606   1.157       .  T
C1600      N1607   1.158       .  T
C1601      N1605   1.157       .  T
C1602      N1608   1.157       .  T
C1603      N1612   1.157       .  T
C1604      N1610   1.158       .  T
C1613      C1614   1.408       .  A
C1613      C1618   1.413       .  A
C1613      C1631   1.451       .  S
C1614      C1619   1.498   1_655  S
C1614      C1615   1.406       .  A
C1615      C1616   1.411       .  A
C1615      C1620   1.452       .  S
C1616      C1617   1.420       .  A
C1616      C1632   1.448       .  S
C1617      C1618   1.421       .  A
C1618      C1621   1.448       .  S
C1619      C1622   1.404       .  A
C1619      C1626   1.406       .  A
C1620      N1637   1.157   1_655  T
C1621      N1639   1.157       .  T
C1622      C1623   1.413       .  A
C1622      C1627   1.452       .  S
C1623      C1624   1.429       .  A
C1623      C1629   1.451       .  S
C1624      C1625   1.426       .  A
C1625      C1626   1.414       .  A
C1625      C1628   1.447       .  S
C1626      C1630   1.453       .  S
C1627      N1634   1.157       .  T
C1628      N1635   1.157       .  T
C1629      N1633   1.157       .  T
C1630      N1636   1.157       .  T
C1631      N1640   1.157   1_655  T
C1632      N1638   1.157       .  T
C1641      C1642   1.403       .  A
C1641      C1646   1.415       .  A
C1641      C1659   1.454       .  S
C1642      C1647   1.497       .  S
C1642      C1643   1.402       .  A
C1643      C1644   1.412       .  A
C1643      C1648   1.452       .  S
C1644      C1645   1.435       .  A
C1644      C1660   1.452       .  S
C1645      C1646   1.433       .  A
C1646      C1649   1.445       .  S
C1647      C1650   1.410       .  A
C1647      C1654   1.410       .  A
C1648      N1665   1.157       .  T
C1649      N1667   1.157       .  T
C1650      C1651   1.409       .  A
C1650      C1655   1.451       .  S
C1651      C1652   1.417       .  A
C1651      C1657   1.452       .  S
C1652      C1653   1.417       .  A
C1653      C1654   1.413       .  A
C1653      C1656   1.450       .  S
C1654      C1658   1.450       .  S
C1655      N1662   1.157       .  T
C1656      N1663   1.157       .  T
C1657      N1661   1.157       .  T
C1658      N1664   1.157       .  T
C1659      N1668   1.157       .  T
C1660      N1666   1.157       .  T
C1669      C1670   1.410       .  A
C1669      C1674   1.411       .  A
C1669      C1687   1.453       .  S
C1670      C1675   1.504       .  S
C1670      C1671   1.410       .  A
C1671      C1672   1.414       .  A
C1671      C1676   1.453       .  S
C1672      C1673   1.427       .  A
C1672      C1688   1.450       .  S
C1673      C1674   1.422       .  A
C1674      C1677   1.448       .  S
C1675      C1678   1.415       .  A
C1675      C1682   1.415       .  A
C1676      N1693   1.157       .  T
C1677      N1695   1.157       .  T
C1678      C1679   1.410       .  A
C1678      C1683   1.451       .  S
C1679      C1680   1.409       .  A
C1679      C1685   1.449       .  S
C1680      C1681   1.411       .  A
C1681      C1682   1.410       .  A
C1681      C1684   1.452       .  S
C1682      C1686   1.451       .  S
C1683      N1690   1.157       .  T
C1684      N1691   1.157       .  T
C1685      N1689   1.157       .  T
C1686      N1692   1.157       .  T
C1687      N1696   1.157       .  T
C1688      N1694   1.157       .  T
C1697      C1698   1.404       .  A
C1697      C1702   1.412       .  A
C1697      C1715   1.453       .  S
C1698      C1703   1.502       .  S
C1698      C1699   1.405       .  A
C1699      C1700   1.417       .  A
C1699      C1704   1.453       .  S
C1700      C1701   1.432       .  A
C1700      C1716   1.446       .  S
C1701      C1702   1.434       .  A
C1702      C1705   1.452       .  S
C1703      C1706   1.411       .  A
C1703      C1710   1.410   1_545  A
C1704      N1721   1.157   1_545  T
C1705      N1723   1.158       .  T
C1706      C1707   1.414   1_545  A
C1706      C1711   1.451       .  S
C1707      C1708   1.418       .  A
C1707      C1713   1.451   1_565  S
C1708      C1709   1.417       .  A
C1709      C1710   1.412       .  A
C1709      C1712   1.451       .  S
C1710      C1714   1.451       .  S
C1711      N1718   1.157       .  T
C1712      N1719   1.157       .  T
C1713      N1717   1.157       .  T
C1714      N1720   1.157       .  T
C1715      N1724   1.157       .  T
C1716      N1722   1.157       .  T
C1725      C1726   1.409       .  A
C1725      C1730   1.414       .  A
C1725      C1743   1.450       .  S
C1726      C1731   1.501       .  S
C1726      C1727   1.408       .  A
C1727      C1728   1.412       .  A
C1727      C1732   1.452       .  S
C1728      C1729   1.418       .  A
C1728      C1744   1.447       .  S
C1729      C1730   1.423       .  A
C1730      C1733   1.451       .  S
C1731      C1734   1.410   1_455  A
C1731      C1738   1.408   1_455  A
C1732      N1749   1.157       .  T
C1733      N1751   1.157       .  T
C1734      C1735   1.415       .  A
C1734      C1739   1.451   1_655  S
C1735      C1736   1.418       .  A
C1735      C1741   1.446       .  S
C1736      C1737   1.420       .  A
C1737      C1738   1.412       .  A
C1737      C1740   1.451       .  S
C1738      C1742   1.451   1_655  S
C1739      N1746   1.157       .  T
C1740      N1747   1.157       .  T
C1741      N1745   1.157       .  T
C1742      N1748   1.157       .  T
C1743      N1752   1.157       .  T
C1744      N1750   1.156       .  T
C1753      C1754   1.410       .  A
C1753      C1758   1.413       .  A
C1753      C1771   1.452       .  S
C1754      C1759   1.501       .  S
C1754      C1755   1.407       .  A
C1755      C1756   1.412       .  A
C1755      C1760   1.453       .  S
C1756      C1757   1.427       .  A
C1756      C1772   1.450       .  S
C1757      C1758   1.420       .  A
C1758      C1761   1.448       .  S
C1759      C1762   1.412       .  A
C1759      C1766   1.415       .  A
C1760      N1777   1.157       .  T
C1761      N1779   1.157       .  T
C1762      C1763   1.410       .  A
C1762      C1767   1.450       .  S
C1763      C1764   1.413       .  A
C1763      C1769   1.452       .  S
C1764      C1765   1.407       .  A
C1765      C1766   1.410       .  A
C1765      C1768   1.451       .  S
C1766      C1770   1.450       .  S
C1767      N1774   1.157       .  T
C1768      N1775   1.157       .  T
C1769      N1773   1.157       .  T
C1770      N1776   1.157       .  T
C1771      N1780   1.157       .  T
C1772      N1778   1.157       .  T
C1781      C1782   1.406       .  A
C1781      C1786   1.416       .  A
C1781      C1799   1.454       .  S
C1782      C1787   1.503   1_545  S
C1782      C1783   1.407       .  A
C1783      C1784   1.412       .  A
C1783      C1788   1.453       .  S
C1784      C1785   1.431       .  A
C1784      C1800   1.452       .  S
C1785      C1786   1.431       .  A
C1786      C1789   1.447       .  S
C1787      C1790   1.411       .  A
C1787      C1794   1.412   1_565  A
C1788      N1805   1.157       .  T
C1789      N1807   1.157       .  T
C1790      C1791   1.413       .  A
C1790      C1795   1.452       .  S
C1791      C1792   1.421       .  A
C1791      C1797   1.451       .  S
C1792      C1793   1.419       .  A
C1793      C1794   1.412   1_565  A
C1793      C1796   1.451   1_565  S
C1794      C1798   1.452       .  S
C1795      N1802   1.157       .  T
C1796      N1803   1.157       .  T
C1797      N1801   1.158       .  T
C1798      N1804   1.157       .  T
C1799      N1808   1.157   1_545  T
C1800      N1806   1.158       .  T
C1809      C1810   1.409       .  A
C1809      C1814   1.413       .  A
C1809      C1827   1.452       .  S
C1810      C1815   1.499       .  S
C1810      C1811   1.410       .  A
C1811      C1812   1.411       .  A
C1811      C1816   1.451       .  S
C1812      C1813   1.417       .  A
C1812      C1828   1.451       .  S
C1813      C1814   1.415       .  A
C1814      C1817   1.446       .  S
C1815      C1818   1.408       .  A
C1815      C1822   1.405       .  A
C1816      N1833   1.157       .  T
C1817      N1835   1.156       .  T
C1818      C1819   1.415       .  A
C1818      C1823   1.451       .  S
C1819      C1820   1.424       .  A
C1819      C1825   1.450       .  S
C1820      C1821   1.424       .  A
C1821      C1822   1.410       .  A
C1821      C1824   1.447       .  S
C1822      C1826   1.454       .  S
C1823      N1830   1.157       .  T
C1824      N1831   1.156       .  T
C1825      N1829   1.157       .  T
C1826      N1832   1.157       .  T
C1827      N1836   1.157       .  T
C1828      N1834   1.157       .  T
C1837      C1838   1.409       .  A
C1837      C1842   1.411       .  A
C1837      C1855   1.451       .  S
C1838      C1843   1.497       .  S
C1838      C1839   1.408       .  A
C1839      C1840   1.412       .  A
C1839      C1844   1.452       .  S
C1840      C1841   1.415       .  A
C1840      C1856   1.446       .  S
C1841      C1842   1.416       .  A
C1842      C1845   1.450       .  S
C1843      C1846   1.404       .  A
C1843      C1850   1.406       .  A
C1844      N1861   1.157       .  T
C1845      N1863   1.157       .  T
C1846      C1847   1.411       .  A
C1846      C1851   1.454       .  S
C1847      C1848   1.424       .  A
C1847      C1853   1.446       .  S
C1848      C1849   1.425       .  A
C1849      C1850   1.414       .  A
C1849      C1852   1.449       .  S
C1850      C1854   1.451       .  S
C1851      N1858   1.157       .  T
C1852      N1859   1.157       .  T
C1853      N1857   1.156       .  T
C1854      N1860   1.157       .  T
C1855      N1864   1.157       .  T
C1856      N1862   1.156       .  T
C1865      C1866   1.406       .  A
C1865      C1870   1.410       .  A
C1865      C1883   1.451       .  S
C1866      C1871   1.495       .  S
C1866      C1867   1.408       .  A
C1867      C1868   1.412       .  A
C1867      C1872   1.452       .  S
C1868      C1869   1.421       .  A
C1868      C1884   1.446       .  S
C1869      C1870   1.421       .  A
C1870      C1873   1.450       .  S
C1871      C1874   1.407       .  A
C1871      C1878   1.405       .  A
C1872      N1889   1.157       .  T
C1873      N1891   1.157       .  T
C1874      C1875   1.411       .  A
C1874      C1879   1.452       .  S
C1875      C1876   1.419       .  A
C1875      C1881   1.446       .  S
C1876      C1877   1.423       .  A
C1877      C1878   1.412       .  A
C1877      C1880   1.448       .  S
C1878      C1882   1.452       .  S
C1879      N1886   1.157       .  T
C1880      N1887   1.156       .  T
C1881      N1885   1.156       .  T
C1882      N1888   1.157       .  T
C1883      N1892   1.157       .  T
C1884      N1890   1.157       .  T
C1893      C1894   1.414       .  A
C1893      C1898   1.411       .  A
C1893      C1911   1.450       .  S
C1894      C1899   1.499       .  S
C1894      C1895   1.414       .  A
C1895      C1896   1.407       .  A
C1895      C1900   1.452       .  S
C1896      C1897   1.410       .  A
C1896      C1912   1.452       .  S
C1897      C1898   1.409       .  A
C1898      C1901   1.449       .  S
C1899      C1902   1.408       .  A
C1899      C1906   1.412       .  A
C1900      N1917   1.157       .  T
C1901      N1919   1.157       .  T
C1902      C1903   1.406       .  A
C1902      C1907   1.452       .  S
C1903      C1904   1.419       .  A
C1903      C1909   1.451       .  S
C1904      C1905   1.422       .  A
C1905      C1906   1.414       .  A
C1905      C1908   1.447       .  S
C1906      C1910   1.453       .  S
C1907      N1914   1.157       .  T
C1908      N1915   1.158       .  T
C1909      N1913   1.157       .  T
C1910      N1916   1.157       .  T
C1911      N1920   1.157       .  T
C1912      N1918   1.157       .  T
C1921      C1922   1.405       .  A
C1921      C1926   1.410       .  A
C1921      C1939   1.452       .  S
C1922      C1927   1.495   1_655  S
C1922      C1923   1.406       .  A
C1923      C1924   1.413       .  A
C1923      C1928   1.453       .  S
C1924      C1925   1.425       .  A
C1924      C1940   1.447       .  S
C1925      C1926   1.426       .  A
C1926      C1929   1.451       .  S
C1927      C1930   1.408       .  A
C1927      C1934   1.408       .  A
C1928      N1945   1.157   1_655  T
C1929      N1947   1.157       .  T
C1930      C1931   1.410       .  A
C1930      C1935   1.452       .  S
C1931      C1932   1.416       .  A
C1931      C1937   1.447       .  S
C1932      C1933   1.419       .  A
C1933      C1934   1.412       .  A
C1933      C1936   1.451       .  S
C1934      C1938   1.450       .  S
C1935      N1942   1.157       .  T
C1936      N1943   1.157       .  T
C1937      N1941   1.156       .  T
C1938      N1944   1.157       .  T
C1939      N1948   1.157   1_655  T
C1940      N1946   1.157       .  T
C1949      C1950   1.409       .  A
C1949      C1954   1.416       .  A
C1949      C1967   1.453       .  S
C1950      C1955   1.510       .  S
C1950      C1951   1.409       .  A
C1951      C1952   1.414       .  A
C1951      C1956   1.453       .  S
C1952      C1953   1.431       .  A
C1952      C1968   1.451       .  S
C1953      C1954   1.428       .  A
C1954      C1957   1.447       .  S
C1955      C1958   1.416       .  A
C1955      C1962   1.417       .  A
C1956      N1973   1.157       .  T
C1957      N1975   1.157       .  T
C1958      C1959   1.411       .  A
C1958      C1963   1.450       .  S
C1959      C1960   1.411       .  A
C1959      C1965   1.452       .  S
C1960      C1961   1.410       .  A
C1961      C1962   1.414       .  A
C1961      C1964   1.450       .  S
C1962      C1966   1.451       .  S
C1963      N1970   1.157       .  T
C1964      N1971   1.157       .  T
C1965      N1969   1.157       .  T
C1966      N1972   1.157       .  T
C1967      N1976   1.157       .  T
C1968      N1974   1.158       .  T
C1977      C1978   1.411       .  A
C1977      C1982   1.415       .  A
C1977      C1995   1.452       .  S
C1978      C1983   1.502   1_655  S
C1978      C1979   1.410       .  A
C1979      C1980   1.408       .  A
C1979      C1984   1.453       .  S
C1980      C1981   1.418       .  A
C1980      C1996   1.449       .  S
C1981      C1982   1.426       .  A
C1982      C1985   1.451       .  S
C1983      C1986   1.415       .  A
C1983      C1990   1.414       .  A
C1984      N2001   1.157   1_655  T
C1985      N2003   1.158       .  T
C1986      C1987   1.409       .  A
C1986      C1991   1.452       .  S
C1987      C1988   1.408       .  A
C1987      C1993   1.449       .  S
C1988      C1989   1.412       .  A
C1989      C1990   1.411       .  A
C1989      C1992   1.452       .  S
C1990      C1994   1.450       .  S
C1991      N1998   1.157       .  T
C1992      N1999   1.157       .  T
C1993      N1997   1.157       .  T
C1994      N2000   1.157       .  T
C1995      N2004   1.157   1_655  T
C1996      N2002   1.157       .  T
C2005      C2006   1.416       .  A
C2005      C2010   1.411       .  A
C2005      C2023   1.451       .  S
C2006      C2011   1.506       .  S
C2006      C2007   1.415       .  A
C2007      C2008   1.411       .  A
C2007      C2012   1.451       .  S
C2008      C2009   1.411       .  A
C2008      C2024   1.451       .  S
C2009      C2010   1.409       .  A
C2010      C2013   1.448       .  S
C2011      C2014   1.411       .  A
C2011      C2018   1.412       .  A
C2012      N2029   1.157       .  T
C2013      N2031   1.157       .  T
C2014      C2015   1.411       .  A
C2014      C2019   1.453       .  S
C2015      C2016   1.420       .  A
C2015      C2021   1.448       .  S
C2016      C2017   1.423       .  A
C2017      C2018   1.414       .  A
C2017      C2020   1.450       .  S
C2018      C2022   1.451       .  S
C2019      N2026   1.157       .  T
C2020      N2027   1.158       .  T
C2021      N2025   1.157       .  T
C2022      N2028   1.157       .  T
C2023      N2032   1.157       .  T
C2024      N2030   1.157       .  T
C2033      C2034   1.406       .  A
C2033      C2038   1.409       .  A
C2033      C2051   1.453       .  S
C2034      C2039   1.490       .  S
C2034      C2035   1.405       .  A
C2035      C2036   1.408       .  A
C2035      C2040   1.451       .  S
C2036      C2037   1.421       .  A
C2036      C2052   1.448       .  S
C2037      C2038   1.427       .  A
C2038      C2041   1.451       .  S
C2039      C2042   1.407       .  A
C2039      C2046   1.409       .  A
C2040      N2057   1.157       .  T
C2041      N2059   1.158       .  T
C2042      C2043   1.409       .  A
C2042      C2047   1.452       .  S
C2043      C2044   1.420       .  A
C2043      C2049   1.451       .  S
C2044      C2045   1.417       .  A
C2045      C2046   1.409       .  A
C2045      C2048   1.451       .  S
C2046      C2050   1.451       .  S
C2047      N2054   1.157       .  T
C2048      N2055   1.157       .  T
C2049      N2053   1.157       .  T
C2050      N2056   1.157       .  T
C2051      N2060   1.157       .  T
C2052      N2058   1.157       .  T
C2061      C2062   1.410       .  A
C2061      C2066   1.412       .  A
C2061      C2079   1.451       .  S
C2062      C2067   1.504   1_554  S
C2062      C2063   1.411       .  A
C2063      C2064   1.415       .  A
C2063      C2068   1.450       .  S
C2064      C2065   1.419       .  A
C2064      C2080   1.451       .  S
C2065      C2066   1.420       .  A
C2066      C2069   1.451       .  S
C2067      C2070   1.410       .  A
C2067      C2074   1.411       .  A
C2068      N2085   1.157   1_554  T
C2069      N2087   1.157       .  T
C2070      C2071   1.413       .  A
C2070      C2075   1.451       .  S
C2071      C2072   1.420       .  A
C2071      C2077   1.451       .  S
C2072      C2073   1.421       .  A
C2073      C2074   1.415       .  A
C2073      C2076   1.451       .  S
C2074      C2078   1.451       .  S
C2075      N2082   1.157       .  T
C2076      N2083   1.157       .  T
C2077      N2081   1.157       .  T
C2078      N2084   1.157   1_556  T
C2079      N2088   1.157   1_554  T
C2080      N2086   1.157       .  T
C2089      C2090   1.411       .  A
C2089      C2094   1.413       .  A
C2089      C2107   1.452       .  S
C2090      C2095   1.501       .  S
C2090      C2091   1.411       .  A
C2091      C2092   1.412       .  A
C2091      C2096   1.451       .  S
C2092      C2093   1.416       .  A
C2092      C2108   1.451       .  S
C2093      C2094   1.419       .  A
C2094      C2097   1.452       .  S
C2095      C2098   1.412       .  A
C2095      C2102   1.411       .  A
C2096      N2113   1.157       .  T
C2097      N2115   1.158       .  T
C2098      C2099   1.414       .  A
C2098      C2103   1.450       .  S
C2099      C2100   1.417       .  A
C2099      C2105   1.451       .  S
C2100      C2101   1.417       .  A
C2101      C2102   1.411       .  A
C2101      C2104   1.452       .  S
C2102      C2106   1.452       .  S
C2103      N2110   1.157       .  T
C2104      N2111   1.157       .  T
C2105      N2109   1.157       .  T
C2106      N2112   1.157       .  T
C2107      N2116   1.157       .  T
C2108      N2114   1.157       .  T
C2117      C2118   1.402       .  A
C2117      C2122   1.412       .  A
C2117      C2135   1.453   1_545  S
C2118      C2123   1.496   1_545  S
C2118      C2119   1.402       .  A
C2119      C2120   1.413       .  A
C2119      C2124   1.454       .  S
C2120      C2121   1.434       .  A
C2120      C2136   1.446       .  S
C2121      C2122   1.435       .  A
C2122      C2125   1.451       .  S
C2123      C2126   1.411       .  A
C2123      C2130   1.408       .  A
C2124      N2141   1.157       .  T
C2125      N2143   1.157   1_545  T
C2126      C2127   1.411       .  A
C2126      C2131   1.452   1_565  S
C2127      C2128   1.417       .  A
C2127      C2133   1.451       .  S
C2128      C2129   1.419       .  A
C2129      C2130   1.410       .  A
C2129      C2132   1.451       .  S
C2130      C2134   1.451       .  S
C2131      N2138   1.157       .  T
C2132      N2139   1.157       .  T
C2133      N2137   1.158       .  T
C2134      N2140   1.157       .  T
C2135      N2144   1.157       .  T
C2136      N2142   1.157       .  T
C2145      C2146   1.409       .  A
C2145      C2150   1.411       .  A
C2145      C2163   1.451       .  S
C2146      C2151   1.498       .  S
C2146      C2147   1.409       .  A
C2147      C2148   1.412       .  A
C2147      C2152   1.451       .  S
C2148      C2149   1.420       .  A
C2148      C2164   1.451       .  S
C2149      C2150   1.419       .  A
C2150      C2153   1.451       .  S
C2151      C2154   1.411       .  A
C2151      C2158   1.410       .  A
C2152      N2169   1.157       .  T
C2153      N2171   1.157       .  T
C2154      C2155   1.413       .  A
C2154      C2159   1.450       .  S
C2155      C2156   1.415       .  A
C2155      C2161   1.450       .  S
C2156      C2157   1.416       .  A
C2157      C2158   1.409       .  A
C2157      C2160   1.452       .  S
C2158      C2162   1.451       .  S
C2159      N2166   1.157       .  T
C2160      N2167   1.157       .  T
C2161      N2165   1.157       .  T
C2162      N2168   1.157       .  T
C2163      N2172   1.157       .  T
C2164      N2170   1.158       .  T
C2173      C2174   1.412   1_545  A
C2173      C2178   1.414       .  A
C2173      C2191   1.451       .  S
C2174      C2179   1.501   1_556  S
C2174      C2175   1.410       .  A
C2175      C2176   1.412       .  A
C2175      C2180   1.450       .  S
C2176      C2177   1.416   1_565  A
C2176      C2192   1.451       .  S
C2177      C2178   1.418       .  A
C2178      C2181   1.451       .  S
C2179      C2182   1.410       .  A
C2179      C2186   1.411       .  A
C2180      N2197   1.157       .  T
C2181      N2199   1.157       .  T
C2182      C2183   1.410       .  A
C2182      C2187   1.451   1_554  S
C2183      C2184   1.418       .  A
C2183      C2189   1.451       .  S
C2184      C2185   1.420       .  A
C2185      C2186   1.415       .  A
C2185      C2188   1.451       .  S
C2186      C2190   1.451   1_565  S
C2187      N2194   1.157       .  T
C2188      N2195   1.157       .  T
C2189      N2193   1.157       .  T
C2190      N2196   1.157       .  T
C2191      N2200   1.157   1_556  T
C2192      N2198   1.157       .  T
C2201      C2202   1.412       .  A
C2201      C2206   1.412       .  A
C2201      C2219   1.451       .  S
C2202      C2207   1.501   1_655  S
C2202      C2203   1.411       .  A
C2203      C2204   1.411       .  A
C2203      C2208   1.451       .  S
C2204      C2205   1.416       .  A
C2204      C2220   1.451       .  S
C2205      C2206   1.417       .  A
C2206      C2209   1.451       .  S
C2207      C2210   1.412       .  A
C2207      C2214   1.412       .  A
C2208      N2225   1.157   1_655  T
C2209      N2227   1.158       .  T
C2210      C2211   1.413       .  A
C2210      C2215   1.451       .  S
C2211      C2212   1.416       .  A
C2211      C2217   1.451       .  S
C2212      C2213   1.416       .  A
C2213      C2214   1.411       .  A
C2213      C2216   1.452       .  S
C2214      C2218   1.451       .  S
C2215      N2222   1.157       .  T
C2216      N2223   1.158       .  T
C2217      N2221   1.157       .  T
C2218      N2224   1.157       .  T
C2219      N2228   1.157   1_655  T
C2220      N2226   1.157       .  T
C2229      C2230   1.403       .  A
C2229      C2234   1.415       .  A
C2229      C2247   1.454       .  S
C2230      C2235   1.500       .  S
C2230      C2231   1.403       .  A
C2231      C2232   1.415       .  A
C2231      C2236   1.452       .  S
C2232      C2233   1.434       .  A
C2232      C2248   1.451       .  S
C2233      C2234   1.433       .  A
C2234      C2237   1.445       .  S
C2235      C2238   1.409       .  A
C2235      C2242   1.411       .  A
C2236      N2253   1.157       .  T
C2237      N2255   1.157       .  T
C2238      C2239   1.412       .  A
C2238      C2243   1.450       .  S
C2239      C2240   1.418       .  A
C2239      C2245   1.451       .  S
C2240      C2241   1.416       .  A
C2241      C2242   1.412       .  A
C2241      C2244   1.451       .  S
C2242      C2246   1.451       .  S
C2243      N2250   1.157       .  T
C2244      N2251   1.157       .  T
C2245      N2249   1.157       .  T
C2246      N2252   1.157       .  T
C2247      N2256   1.157       .  T
C2248      N2254   1.157       .  T
C2257      C2258   1.409       .  A
C2257      C2262   1.406       .  A
C2257      C2275   1.452       .  S
C2258      C2263   1.492       .  S
C2258      C2259   1.409       .  A
C2259      C2260   1.413       .  A
C2259      C2264   1.450       .  S
C2260      C2261   1.418       .  A
C2260      C2276   1.451       .  S
C2261      C2262   1.416       .  A
C2262      C2265   1.452       .  S
C2263      C2266   1.407   1_455  A
C2263      C2270   1.409   1_455  A
C2264      N2281   1.157       .  T
C2265      N2283   1.157       .  T
C2266      C2267   1.409       .  A
C2266      C2271   1.451   1_655  S
C2267      C2268   1.418       .  A
C2267      C2273   1.451       .  S
C2268      C2269   1.417       .  A
C2269      C2270   1.411       .  A
C2269      C2272   1.450       .  S
C2270      C2274   1.451   1_655  S
C2271      N2278   1.157       .  T
C2272      N2279   1.157       .  T
C2273      N2277   1.157       .  T
C2274      N2280   1.157       .  T
C2275      N2284   1.157       .  T
C2276      N2282   1.157       .  T
C2285      C2286   1.410       .  A
C2285      C2290   1.412       .  A
C2285      C2303   1.451   1_554  S
C2286      C2291   1.496   1_554  S
C2286      C2287   1.410       .  A
C2287      C2288   1.410       .  A
C2287      C2292   1.451       .  S
C2288      C2289   1.417       .  A
C2288      C2304   1.451       .  S
C2289      C2290   1.418       .  A
C2290      C2293   1.451       .  S
C2291      C2294   1.410       .  A
C2291      C2298   1.410       .  A
C2292      N2309   1.157       .  T
C2293      N2311   1.157       .  T
C2294      C2295   1.411       .  A
C2294      C2299   1.452       .  S
C2295      C2296   1.417       .  A
C2295      C2301   1.452       .  S
C2296      C2297   1.416       .  A
C2297      C2298   1.412       .  A
C2297      C2300   1.451       .  S
C2298      C2302   1.450       .  S
C2299      N2306   1.157       .  T
C2300      N2307   1.157       .  T
C2301      N2305   1.158       .  T
C2302      N2308   1.157       .  T
C2303      N2312   1.157       .  T
C2304      N2310   1.157       .  T
C2313      C2314   1.412       .  A
C2313      C2318   1.415       .  A
C2313      C2331   1.450       .  S
C2314      C2319   1.502   1_565  S
C2314      C2315   1.412   1_565  A
C2315      C2316   1.411   1_545  A
C2315      C2320   1.451       .  S
C2316      C2317   1.416       .  A
C2316      C2332   1.452   1_565  S
C2317      C2318   1.416       .  A
C2318      C2321   1.451       .  S
C2319      C2322   1.407       .  A
C2319      C2326   1.408       .  A
C2320      N2337   1.157       .  T
C2321      N2339   1.157       .  T
C2322      C2323   1.414       .  A
C2322      C2327   1.451       .  S
C2323      C2324   1.424       .  A
C2323      C2329   1.449       .  S
C2324      C2325   1.428       .  A
C2325      C2326   1.414       .  A
C2325      C2328   1.449       .  S
C2326      C2330   1.452       .  S
C2327      N2334   1.157       .  T
C2328      N2335   1.158       .  T
C2329      N2333   1.157       .  T
C2330      N2336   1.157   1_545  T
C2331      N2340   1.157       .  T
C2332      N2338   1.157       .  T
C2341      C2342   1.411       .  A
C2341      C2346   1.409       .  A
C2341      C2359   1.451   1_655  S
C2342      C2347   1.495   1_655  S
C2342      C2343   1.410       .  A
C2343      C2344   1.412       .  A
C2343      C2348   1.450       .  S
C2344      C2345   1.415       .  A
C2344      C2360   1.451       .  S
C2345      C2346   1.414       .  A
C2346      C2349   1.452       .  S
C2347      C2350   1.410       .  A
C2347      C2354   1.410       .  A
C2348      N2365   1.157       .  T
C2349      N2367   1.157       .  T
C2350      C2351   1.410       .  A
C2350      C2355   1.451       .  S
C2351      C2352   1.416       .  A
C2351      C2357   1.452       .  S
C2352      C2353   1.414       .  A
C2353      C2354   1.412       .  A
C2353      C2356   1.450       .  S
C2354      C2358   1.450       .  S
C2355      N2362   1.157       .  T
C2356      N2363   1.157       .  T
C2357      N2361   1.157       .  T
C2358      N2364   1.157       .  T
C2359      N2368   1.157       .  T
C2360      N2366   1.157       .  T
C2369      C2370   1.410       .  A
C2369      C2374   1.410       .  A
C2369      C2387   1.452       .  S
C2370      C2375   1.499       .  S
C2370      C2371   1.409       .  A
C2371      C2372   1.414       .  A
C2371      C2376   1.450       .  S
C2372      C2373   1.419       .  A
C2372      C2388   1.451       .  S
C2373      C2374   1.418       .  A
C2374      C2377   1.451       .  S
C2375      C2378   1.410       .  A
C2375      C2382   1.411       .  A
C2376      N2393   1.157       .  T
C2377      N2395   1.157       .  T
C2378      C2379   1.411       .  A
C2378      C2383   1.451       .  S
C2379      C2380   1.416       .  A
C2379      C2385   1.451       .  S
C2380      C2381   1.415       .  A
C2381      C2382   1.412       .  A
C2381      C2384   1.450       .  S
C2382      C2386   1.450       .  S
C2383      N2390   1.157       .  T
C2384      N2391   1.157       .  T
C2385      N2389   1.157       .  T
C2386      N2392   1.157       .  T
C2387      N2396   1.157       .  T
C2388      N2394   1.157       .  T
C2397      C2398   1.409       .  A
C2397      C2402   1.413       .  A
C2397      C2415   1.451       .  S
C2398      C2403   1.496   1_455  S
C2398      C2399   1.409       .  A
C2399      C2400   1.410       .  A
C2399      C2404   1.451       .  S
C2400      C2401   1.418       .  A
C2400      C2416   1.452       .  S
C2401      C2402   1.420       .  A
C2402      C2405   1.451       .  S
C2403      C2406   1.408       .  A
C2403      C2410   1.409       .  A
C2404      N2421   1.157       .  T
C2405      N2423   1.158       .  T
C2406      C2407   1.411       .  A
C2406      C2411   1.451   1_545  S
C2407      C2408   1.419       .  A
C2407      C2413   1.451       .  S
C2408      C2409   1.420       .  A
C2409      C2410   1.412       .  A
C2409      C2412   1.452       .  S
C2410      C2414   1.451       .  S
C2411      N2418   1.157   1_655  T
C2412      N2419   1.158       .  T
C2413      N2417   1.157   1_545  T
C2414      N2420   1.157   1_655  T
C2415      N2424   1.157       .  T
C2416      N2422   1.157       .  T
C2425      C2426   1.409       .  A
C2425      C2430   1.412       .  A
C2425      C2443   1.450       .  S
C2426      C2431   1.497       .  S
C2426      C2427   1.410       .  A
C2427      C2428   1.411       .  A
C2427      C2432   1.452       .  S
C2428      C2429   1.417       .  A
C2428      C2444   1.451       .  S
C2429      C2430   1.416       .  A
C2430      C2433   1.451       .  S
C2431      C2434   1.409       .  A
C2431      C2438   1.409       .  A
C2432      N2449   1.157       .  T
C2433      N2451   1.157       .  T
C2434      C2435   1.410       .  A
C2434      C2439   1.452       .  S
C2435      C2436   1.418       .  A
C2435      C2441   1.451       .  S
C2436      C2437   1.417       .  A
C2437      C2438   1.412       .  A
C2437      C2440   1.451       .  S
C2438      C2442   1.450       .  S
C2439      N2446   1.157       .  T
C2440      N2447   1.157       .  T
C2441      N2445   1.157       .  T
C2442      N2448   1.157       .  T
C2443      N2452   1.157       .  T
C2444      N2450   1.157       .  T
C2453      C2454   1.411       .  A
C2453      C2458   1.413       .  A
C2453      C2471   1.450       .  S
C2454      C2459   1.499   1_556  S
C2454      C2455   1.411   1_565  A
C2455      C2456   1.413       .  A
C2455      C2460   1.450       .  S
C2456      C2457   1.414       .  A
C2456      C2472   1.450       .  S
C2457      C2458   1.413   1_545  A
C2458      C2461   1.450       .  S
C2459      C2462   1.410       .  A
C2459      C2466   1.411       .  A
C2460      N2477   1.157   1_556  T
C2461      N2479   1.157       .  T
C2462      C2463   1.411       .  A
C2462      C2467   1.451   1_554  S
C2463      C2464   1.418       .  A
C2463      C2469   1.451       .  S
C2464      C2465   1.417       .  A
C2465      C2466   1.414       .  A
C2465      C2468   1.451       .  S
C2466      C2470   1.450       .  S
C2467      N2474   1.157       .  T
C2468      N2475   1.157       .  T
C2469      N2473   1.157       .  T
C2470      N2476   1.157   1_565  T
C2471      N2480   1.157       .  T
C2472      N2478   1.157       .  T
C2481      C2482   1.415       .  A
C2481      C2486   1.414       .  A
C2481      C2499   1.450       .  S
C2482      C2487   1.508       .  S
C2482      C2483   1.415       .  A
C2483      C2484   1.413       .  A
C2483      C2488   1.450       .  S
C2484      C2485   1.410       .  A
C2484      C2500   1.450       .  S
C2485      C2486   1.413       .  A
C2486      C2489   1.451       .  S
C2487      C2490   1.410       .  A
C2487      C2494   1.412       .  A
C2488      N2505   1.157       .  T
C2489      N2507   1.157       .  T
C2490      C2491   1.415       .  A
C2490      C2495   1.451       .  S
C2491      C2492   1.425       .  A
C2491      C2497   1.452       .  S
C2492      C2493   1.421       .  A
C2493      C2494   1.415       .  A
C2493      C2496   1.447       .  S
C2494      C2498   1.452       .  S
C2495      N2502   1.157       .  T
C2496      N2503   1.157       .  T
C2497      N2501   1.158       .  T
C2498      N2504   1.157       .  T
C2499      N2508   1.157       .  T
C2500      N2506   1.157       .  T
C2509      C2510   1.418       .  A
C2509      C2514   1.412       .  A
C2509      C2527   1.451       .  S
C2510      C2515   1.511   1_655  S
C2510      C2511   1.417       .  A
C2511      C2512   1.413       .  A
C2511      C2516   1.450       .  S
C2512      C2513   1.409       .  A
C2512      C2528   1.450       .  S
C2513      C2514   1.410       .  A
C2514      C2517   1.452       .  S
C2515      C2518   1.411       .  A
C2515      C2522   1.411       .  A
C2516      N2533   1.157   1_655  T
C2517      N2535   1.157       .  T
C2518      C2519   1.414       .  A
C2518      C2523   1.452       .  S
C2519      C2520   1.425       .  A
C2519      C2525   1.450       .  S
C2520      C2521   1.425       .  A
C2521      C2522   1.415       .  A
C2521      C2524   1.447       .  S
C2522      C2526   1.453       .  S
C2523      N2530   1.157       .  T
C2524      N2531   1.156       .  T
C2525      N2529   1.158       .  T
C2526      N2532   1.157       .  T
C2527      N2536   1.157   1_655  T
C2528      N2534   1.157       .  T
C2537      C2538   1.408       .  A
C2537      C2542   1.413       .  A
C2537      C2555   1.451       .  S
C2538      C2543   1.500   1_655  S
C2538      C2539   1.408       .  A
C2539      C2540   1.413       .  A
C2539      C2544   1.452       .  S
C2540      C2541   1.419       .  A
C2540      C2556   1.444       .  S
C2541      C2542   1.420       .  A
C2542      C2545   1.448       .  S
C2543      C2546   1.408       .  A
C2543      C2550   1.409       .  A
C2544      N2561   1.157   1_655  T
C2545      N2563   1.156       .  T
C2546      C2547   1.413       .  A
C2546      C2551   1.451       .  S
C2547      C2548   1.423       .  A
C2547      C2553   1.452       .  S
C2548      C2549   1.418       .  A
C2549      C2550   1.412       .  A
C2549      C2552   1.448       .  S
C2550      C2554   1.452       .  S
C2551      N2558   1.157       .  T
C2552      N2559   1.157       .  T
C2553      N2557   1.157       .  T
C2554      N2560   1.157       .  T
C2555      N2564   1.157   1_655  T
C2556      N2562   1.156       .  T
C2565      C2566   1.404       .  A
C2565      C2570   1.415       .  A
C2565      C2583   1.451       .  S
C2566      C2571   1.499       .  S
C2566      C2567   1.405       .  A
C2567      C2568   1.413       .  A
C2567      C2572   1.454       .  S
C2568      C2569   1.429       .  A
C2568      C2584   1.447       .  S
C2569      C2570   1.430       .  A
C2570      C2573   1.451       .  S
C2571      C2574   1.408       .  A
C2571      C2578   1.409       .  A
C2572      N2589   1.157       .  T
C2573      N2591   1.158       .  T
C2574      C2575   1.412       .  A
C2574      C2579   1.451       .  S
C2575      C2576   1.418       .  A
C2575      C2581   1.449       .  S
C2576      C2577   1.415       .  A
C2577      C2578   1.412       .  A
C2577      C2580   1.446       .  S
C2578      C2582   1.451       .  S
C2579      N2586   1.157       .  T
C2580      N2587   1.156       .  T
C2581      N2585   1.157       .  T
C2582      N2588   1.157       .  T
C2583      N2592   1.157       .  T
C2584      N2590   1.158       .  T
C2593      C2594   1.410       .  A
C2593      C2598   1.413       .  A
C2593      C2611   1.453       .  S
C2594      C2599   1.501       .  S
C2594      C2595   1.410       .  A
C2595      C2596   1.410       .  A
C2595      C2600   1.452       .  S
C2596      C2597   1.420       .  A
C2596      C2612   1.450       .  S
C2597      C2598   1.421       .  A
C2598      C2601   1.446       .  S
C2599      C2602   1.415       .  A
C2599      C2606   1.415       .  A
C2600      N2617   1.157       .  T
C2601      N2619   1.156       .  T
C2602      C2603   1.411       .  A
C2602      C2607   1.451       .  S
C2603      C2604   1.411       .  A
C2603      C2609   1.450       .  S
C2604      C2605   1.407       .  A
C2605      C2606   1.408       .  A
C2605      C2608   1.451       .  S
C2606      C2610   1.450       .  S
C2607      N2614   1.157       .  T
C2608      N2615   1.157       .  T
C2609      N2613   1.157       .  T
C2610      N2616   1.157       .  T
C2611      N2620   1.157       .  T
C2612      N2618   1.157       .  T
C2621      C2622   1.417       .  A
C2621      C2626   1.411       .  A
C2621      C2639   1.451       .  S
C2622      C2627   1.506       .  S
C2622      C2623   1.416       .  A
C2623      C2624   1.411       .  A
C2623      C2628   1.451       .  S
C2624      C2625   1.411       .  A
C2624      C2640   1.452       .  S
C2625      C2626   1.408       .  A
C2626      C2629   1.450       .  S
C2627      C2630   1.409       .  A
C2627      C2634   1.407       .  A
C2628      N2645   1.157       .  T
C2629      N2647   1.157       .  T
C2630      C2631   1.417       .  A
C2630      C2635   1.454       .  S
C2631      C2632   1.429       .  A
C2631      C2637   1.446       .  S
C2632      C2633   1.424       .  A
C2633      C2634   1.411       .  A
C2633      C2636   1.447       .  S
C2634      C2638   1.453       .  S
C2635      N2642   1.157       .  T
C2636      N2643   1.156       .  T
C2637      N2641   1.157       .  T
C2638      N2644   1.157       .  T
C2639      N2648   1.157       .  T
C2640      N2646   1.157       .  T
C2649      C2650   1.410       .  A
C2649      C2654   1.412       .  A
C2649      C2667   1.452   1_655  S
C2650      C2655   1.499   1_655  S
C2650      C2651   1.408       .  A
C2651      C2652   1.409       .  A
C2651      C2656   1.452       .  S
C2652      C2653   1.424       .  A
C2652      C2668   1.452       .  S
C2653      C2654   1.421       .  A
C2654      C2657   1.447       .  S
C2655      C2658   1.413       .  A
C2655      C2662   1.415       .  A
C2656      N2673   1.157   1_655  T
C2657      N2675   1.157       .  T
C2658      C2659   1.410       .  A
C2658      C2663   1.450       .  S
C2659      C2660   1.412       .  A
C2659      C2665   1.451       .  S
C2660      C2661   1.406       .  A
C2661      C2662   1.407       .  A
C2661      C2664   1.450       .  S
C2662      C2666   1.450       .  S
C2663      N2670   1.157       .  T
C2664      N2671   1.157       .  T
C2665      N2669   1.157       .  T
C2666      N2672   1.157       .  T
C2667      N2676   1.157       .  T
C2668      N2674   1.158       .  T
C2677      C2678   1.406       .  A
C2677      C2682   1.416       .  A
C2677      C2695   1.451       .  S
C2678      C2683   1.502       .  S
C2678      C2679   1.405       .  A
C2679      C2680   1.414       .  A
C2679      C2684   1.454       .  S
C2680      C2681   1.429       .  A
C2680      C2696   1.447       .  S
C2681      C2682   1.427       .  A
C2682      C2685   1.451       .  S
C2683      C2686   1.407       .  A
C2683      C2690   1.409       .  A
C2684      N2701   1.157       .  T
C2685      N2703   1.157       .  T
C2686      C2687   1.413       .  A
C2686      C2691   1.451       .  S
C2687      C2688   1.422       .  A
C2687      C2693   1.449       .  S
C2688      C2689   1.419       .  A
C2689      C2690   1.414       .  A
C2689      C2692   1.445       .  S
C2690      C2694   1.452       .  S
C2691      N2698   1.157       .  T
C2692      N2699   1.156       .  T
C2693      N2697   1.157       .  T
C2694      N2700   1.157       .  T
C2695      N2704   1.157       .  T
C2696      N2702   1.157       .  T
C2705      C2706   1.409       .  A
C2705      C2710   1.414       .  A
C2705      C2723   1.450       .  S
C2706      C2711   1.500       .  S
C2706      C2707   1.407       .  A
C2707      C2708   1.412       .  A
C2707      C2712   1.452       .  S
C2708      C2709   1.419       .  A
C2708      C2724   1.447       .  S
C2709      C2710   1.420       .  A
C2710      C2713   1.449       .  S
C2711      C2714   1.405       .  A
C2711      C2718   1.405       .  A
C2712      N2729   1.157       .  T
C2713      N2731   1.158       .  T
C2714      C2715   1.413       .  A
C2714      C2719   1.451       .  S
C2715      C2716   1.427       .  A
C2715      C2721   1.450       .  S
C2716      C2717   1.429       .  A
C2717      C2718   1.415       .  A
C2717      C2720   1.447       .  S
C2718      C2722   1.454       .  S
C2719      N2726   1.157       .  T
C2720      N2727   1.158       .  T
C2721      N2725   1.157       .  T
C2722      N2728   1.157       .  T
C2723      N2732   1.157       .  T
C2724      N2730   1.156       .  T
C2733      C2734   1.409       .  A
C2733      C2738   1.414       .  A
C2733      C2751   1.450       .  S
C2734      C2739   1.503       .  S
C2734      C2735   1.410       .  A
C2735      C2736   1.413       .  A
C2735      C2740   1.451       .  S
C2736      C2737   1.417       .  A
C2736      C2752   1.449       .  S
C2737      C2738   1.420       .  A
C2738      C2741   1.451       .  S
C2739      C2742   1.405       .  A
C2739      C2746   1.405       .  A
C2740      N2757   1.157       .  T
C2741      N2759   1.157       .  T
C2742      C2743   1.415       .  A
C2742      C2747   1.453       .  S
C2743      C2744   1.428       .  A
C2743      C2749   1.447       .  S
C2744      C2745   1.431       .  A
C2745      C2746   1.416       .  A
C2745      C2748   1.451       .  S
C2746      C2750   1.452       .  S
C2747      N2754   1.157       .  T
C2748      N2755   1.157       .  T
C2749      N2753   1.158       .  T
C2750      N2756   1.157       .  T
C2751      N2760   1.157       .  T
C2752      N2758   1.157       .  T
C2761      C2762   1.411       .  A
C2761      C2766   1.414       .  A
C2761      C2779   1.451       .  S
C2762      C2767   1.503       .  S
C2762      C2763   1.410       .  A
C2763      C2764   1.413       .  A
C2763      C2768   1.451       .  S
C2764      C2765   1.417       .  A
C2764      C2780   1.451       .  S
C2765      C2766   1.414       .  A
C2766      C2769   1.446       .  S
C2767      C2770   1.406       .  A
C2767      C2774   1.403       .  A
C2768      N2785   1.157       .  T
C2769      N2787   1.156       .  T
C2770      C2771   1.418       .  A
C2770      C2775   1.452       .  S
C2771      C2772   1.427       .  A
C2771      C2777   1.446       .  S
C2772      C2773   1.428       .  A
C2773      C2774   1.414       .  A
C2773      C2776   1.446       .  S
C2774      C2778   1.454       .  S
C2775      N2782   1.157       .  T
C2776      N2783   1.156       .  T
C2777      N2781   1.156       .  T
C2778      N2784   1.157       .  T
C2779      N2788   1.157       .  T
C2780      N2786   1.157       .  T
C2789      C2790   1.408   1_655  A
C2789      C2794   1.413       .  A
C2789      C2807   1.452   1_655  S
C2790      C2795   1.505       .  S
C2790      C2791   1.411   1_455  A
C2791      C2792   1.414       .  A
C2791      C2796   1.453   1_655  S
C2792      C2793   1.423       .  A
C2792      C2808   1.449       .  S
C2793      C2794   1.427       .  A
C2794      C2797   1.449       .  S
C2795      C2798   1.415       .  A
C2795      C2802   1.413       .  A
C2796      N2813   1.157       .  T
C2797      N2815   1.157       .  T
C2798      C2799   1.413       .  A
C2798      C2803   1.451       .  S
C2799      C2800   1.414       .  A
C2799      C2805   1.452       .  S
C2800      C2801   1.410       .  A
C2801      C2802   1.411       .  A
C2801      C2804   1.446       .  S
C2802      C2806   1.451       .  S
C2803      N2810   1.157       .  T
C2804      N2811   1.156       .  T
C2805      N2809   1.157       .  T
C2806      N2812   1.157       .  T
C2807      N2816   1.157       .  T
C2808      N2814   1.157       .  T
C2817      C2818   1.409       .  A
C2817      C2822   1.419       .  A
C2817      C2835   1.451       .  S
C2818      C2823   1.510       .  S
C2818      C2819   1.408       .  A
C2819      C2820   1.417       .  A
C2819      C2824   1.451       .  S
C2820      C2821   1.428       .  A
C2820      C2836   1.450       .  S
C2821      C2822   1.428       .  A
C2822      C2825   1.450       .  S
C2823      C2826   1.411       .  A
C2823      C2830   1.412       .  A
C2824      N2841   1.157       .  T
C2825      N2843   1.158       .  T
C2826      C2827   1.416       .  A
C2826      C2831   1.450       .  S
C2827      C2828   1.419       .  A
C2827      C2833   1.451       .  S
C2828      C2829   1.420       .  A
C2829      C2830   1.418       .  A
C2829      C2832   1.451       .  S
C2830      C2834   1.450       .  S
C2831      N2838   1.157       .  T
C2832      N2839   1.158       .  T
C2833      N2837   1.157       .  T
C2834      N2840   1.157       .  T
C2835      N2844   1.157       .  T
C2836      N2842   1.157       .  T
C2845      C2846   1.409       .  A
C2845      C2850   1.410       .  A
C2845      C2863   1.451       .  S
C2846      C2851   1.498       .  S
C2846      C2847   1.410       .  A
C2847      C2848   1.413       .  A
C2847      C2852   1.450       .  S
C2848      C2849   1.417       .  A
C2848      C2864   1.451       .  S
C2849      C2850   1.418       .  A
C2850      C2853   1.452       .  S
C2851      C2854   1.409       .  A
C2851      C2858   1.410       .  A
C2852      N2869   1.157       .  T
C2853      N2871   1.158       .  T
C2854      C2855   1.412       .  A
C2854      C2859   1.451       .  S
C2855      C2856   1.419       .  A
C2855      C2861   1.451       .  S
C2856      C2857   1.418       .  A
C2857      C2858   1.412       .  A
C2857      C2860   1.451       .  S
C2858      C2862   1.451       .  S
C2859      N2866   1.157       .  T
C2860      N2867   1.157       .  T
C2861      N2865   1.157       .  T
C2862      N2868   1.157       .  T
C2863      N2872   1.157       .  T
C2864      N2870   1.157       .  T
C2873      C2874   1.412       .  A
C2873      C2878   1.410       .  A
C2873      C2891   1.452       .  S
C2874      C2879   1.500   1_655  S
C2874      C2875   1.411       .  A
C2875      C2876   1.415       .  A
C2875      C2880   1.450       .  S
C2876      C2877   1.415       .  A
C2876      C2892   1.450       .  S
C2877      C2878   1.416       .  A
C2878      C2881   1.452       .  S
C2879      C2882   1.410       .  A
C2879      C2886   1.411       .  A
C2880      N2897   1.157       .  T
C2881      N2899   1.157       .  T
C2882      C2883   1.413       .  A
C2882      C2887   1.450       .  S
C2883      C2884   1.416       .  A
C2883      C2889   1.451       .  S
C2884      C2885   1.418       .  A
C2885      C2886   1.412       .  A
C2885      C2888   1.451       .  S
C2886      C2890   1.451       .  S
C2887      N2894   1.157       .  T
C2888      N2895   1.157       .  T
C2889      N2893   1.157       .  T
C2890      N2896   1.157       .  T
C2891      N2900   1.157   1_655  T
C2892      N2898   1.157       .  T
C2901      C2902   1.413       .  A
C2901      C2906   1.415       .  A
C2901      C2919   1.450       .  S
C2902      C2907   1.506       .  S
C2902      C2903   1.412       .  A
C2903      C2904   1.412       .  A
C2903      C2908   1.451       .  S
C2904      C2905   1.417       .  A
C2904      C2920   1.452       .  S
C2905      C2906   1.415       .  A
C2906      C2909   1.450       .  S
C2907      C2910   1.407       .  A
C2907      C2914   1.406       .  A
C2908      N2925   1.157       .  T
C2909      N2927   1.157       .  T
C2910      C2911   1.418       .  A
C2910      C2915   1.453       .  S
C2911      C2912   1.431       .  A
C2911      C2917   1.448       .  S
C2912      C2913   1.431       .  A
C2913      C2914   1.413       .  A
C2913      C2916   1.451       .  S
C2914      C2918   1.453       .  S
C2915      N2922   1.157       .  T
C2916      N2923   1.157       .  T
C2917      N2921   1.157       .  T
C2918      N2924   1.157       .  T
C2919      N2928   1.157       .  T
C2920      N2926   1.157       .  T
C2929      C2930   1.410       .  A
C2929      C2934   1.412       .  A
C2929      C2947   1.451       .  S
C2930      C2935   1.499       .  S
C2930      C2931   1.410       .  A
C2931      C2932   1.412       .  A
C2931      C2936   1.450       .  S
C2932      C2933   1.415       .  A
C2932      C2948   1.450       .  S
C2933      C2934   1.418       .  A
C2934      C2937   1.452       .  S
C2935      C2938   1.410       .  A
C2935      C2942   1.409       .  A
C2936      N2953   1.157       .  T
C2937      N2955   1.157       .  T
C2938      C2939   1.412       .  A
C2938      C2943   1.452       .  S
C2939      C2940   1.419       .  A
C2939      C2945   1.451       .  S
C2940      C2941   1.419       .  A
C2941      C2942   1.414       .  A
C2941      C2944   1.451       .  S
C2942      C2946   1.450       .  S
C2943      N2950   1.157       .  T
C2944      N2951   1.157       .  T
C2945      N2949   1.158       .  T
C2946      N2952   1.157       .  T
C2947      N2956   1.157       .  T
C2948      N2954   1.157       .  T
C2957      C2958   1.410       .  A
C2957      C2962   1.413       .  A
C2957      C2975   1.452       .  S
C2958      C2963   1.500       .  S
C2958      C2959   1.410       .  A
C2959      C2960   1.412       .  A
C2959      C2964   1.452       .  S
C2960      C2961   1.420       .  A
C2960      C2976   1.451       .  S
C2961      C2962   1.422       .  A
C2962      C2965   1.452       .  S
C2963      C2966   1.411       .  A
C2963      C2970   1.411       .  A
C2964      N2981   1.157       .  T
C2965      N2983   1.158       .  T
C2966      C2967   1.412       .  A
C2966      C2971   1.451       .  S
C2967      C2968   1.419       .  A
C2967      C2973   1.451       .  S
C2968      C2969   1.418       .  A
C2969      C2970   1.411       .  A
C2969      C2972   1.451       .  S
C2970      C2974   1.452       .  S
C2971      N2978   1.157       .  T
C2972      N2979   1.157       .  T
C2973      N2977   1.157       .  T
C2974      N2980   1.157       .  T
C2975      N2984   1.157       .  T
C2976      N2982   1.157       .  T
C2985      C2986   1.410       .  A
C2985      C2990   1.412       .  A
C2985      C3003   1.451       .  S
C2986      C2991   1.497       .  S
C2986      C2987   1.409       .  A
C2987      C2988   1.411       .  A
C2987      C2992   1.451       .  S
C2988      C2989   1.418       .  A
C2988      C3004   1.451       .  S
C2989      C2990   1.418       .  A
C2990      C2993   1.451       .  S
C2991      C2994   1.411       .  A
C2991      C2998   1.410       .  A
C2992      N3009   1.157       .  T
C2993      N3011   1.157       .  T
C2994      C2995   1.409       .  A
C2994      C2999   1.451       .  S
C2995      C2996   1.416       .  A
C2995      C3001   1.452       .  S
C2996      C2997   1.416       .  A
C2997      C2998   1.412       .  A
C2997      C3000   1.451       .  S
C2998      C3002   1.450       .  S
C2999      N3006   1.157       .  T
C3000      N3007   1.157       .  T
C3001      N3005   1.157       .  T
C3002      N3008   1.157       .  T
C3003      N3012   1.157       .  T
C3004      N3010   1.157       .  T
C3013      C3014   1.407       .  A
C3013      C3018   1.413       .  A
C3013      C3031   1.451       .  S
C3014      C3019   1.500       .  S
C3014      C3015   1.407       .  A
C3015      C3016   1.414       .  A
C3015      C3020   1.452       .  S
C3016      C3017   1.427       .  A
C3016      C3032   1.449       .  S
C3017      C3018   1.424       .  A
C3018      C3021   1.449       .  S
C3019      C3022   1.409       .  A
C3019      C3026   1.410       .  A
C3020      N3037   1.157   1_565  T
C3021      N3039   1.157       .  T
C3022      C3023   1.413       .  A
C3022      C3027   1.451       .  S
C3023      C3024   1.417   1_565  A
C3023      C3029   1.451       .  S
C3024      C3025   1.419       .  A
C3025      C3026   1.413   1_545  A
C3025      C3028   1.451       .  S
C3026      C3030   1.451   1_565  S
C3027      N3034   1.157       .  T
C3028      N3035   1.157       .  T
C3029      N3033   1.157       .  T
C3030      N3036   1.157       .  T
C3031      N3040   1.157       .  T
C3032      N3038   1.158       .  T
C3041      C3042   1.409       .  A
C3041      C3046   1.412       .  A
C3041      C3059   1.451       .  S
C3042      C3047   1.498       .  S
C3042      C3043   1.409       .  A
C3043      C3044   1.412       .  A
C3043      C3048   1.451       .  S
C3044      C3045   1.418       .  A
C3044      C3060   1.451       .  S
C3045      C3046   1.419       .  A
C3046      C3049   1.451       .  S
C3047      C3050   1.410       .  A
C3047      C3054   1.409       .  A
C3048      N3065   1.157       .  T
C3049      N3067   1.157       .  T
C3050      C3051   1.413       .  A
C3050      C3055   1.451       .  S
C3051      C3052   1.418       .  A
C3051      C3057   1.450       .  S
C3052      C3053   1.420       .  A
C3053      C3054   1.411       .  A
C3053      C3056   1.452       .  S
C3054      C3058   1.451       .  S
C3055      N3062   1.157       .  T
C3056      N3063   1.157       .  T
C3057      N3061   1.157       .  T
C3058      N3064   1.157       .  T
C3059      N3068   1.157       .  T
C3060      N3066   1.157       .  T
C3069      C3070   1.410       .  A
C3069      C3074   1.415       .  A
C3069      C3087   1.450   1_545  S
C3070      C3075   1.500       .  S
C3070      C3071   1.410       .  A
C3071      C3072   1.412       .  A
C3071      C3076   1.452       .  S
C3072      C3073   1.419       .  A
C3072      C3088   1.451       .  S
C3073      C3074   1.419       .  A
C3074      C3077   1.450   1_545  S
C3075      C3078   1.410       .  A
C3075      C3082   1.411       .  A
C3076      N3093   1.157       .  T
C3077      N3095   1.157       .  T
C3078      C3079   1.412       .  A
C3078      C3083   1.450       .  S
C3079      C3080   1.417       .  A
C3079      C3085   1.451       .  S
C3080      C3081   1.417       .  A
C3081      C3082   1.413       .  A
C3081      C3084   1.451       .  S
C3082      C3086   1.450       .  S
C3083      N3090   1.157       .  T
C3084      N3091   1.157       .  T
C3085      N3089   1.157       .  T
C3086      N3092   1.157       .  T
C3087      N3096   1.157       .  T
C3088      N3094   1.157       .  T
C3097      C3098   1.410       .  A
C3097      C3102   1.414       .  A
C3097      C3115   1.450       .  S
C3098      C3103   1.500   1_655  S
C3098      C3099   1.411       .  A
C3099      C3100   1.412       .  A
C3099      C3104   1.451       .  S
C3100      C3101   1.418       .  A
C3100      C3116   1.451       .  S
C3101      C3102   1.417       .  A
C3102      C3105   1.450       .  S
C3103      C3106   1.411       .  A
C3103      C3110   1.410       .  A
C3104      N3121   1.157       .  T
C3105      N3123   1.157   1_545  T
C3106      C3107   1.414       .  A
C3106      C3111   1.450       .  S
C3107      C3108   1.417       .  A
C3107      C3113   1.451       .  S
C3108      C3109   1.418       .  A
C3109      C3110   1.411       .  A
C3109      C3112   1.452       .  S
C3110      C3114   1.451       .  S
C3111      N3118   1.157   1_445  T
C3112      N3119   1.157       .  T
C3113      N3117   1.157   1_545  T
C3114      N3120   1.157       .  T
C3115      N3124   1.157   1_545  T
C3116      N3122   1.157       .  T
C3125      C3126   1.411       .  A
C3125      C3130   1.415       .  A
C3125      C3143   1.450       .  S
C3126      C3131   1.498       .  S
C3126      C3127   1.409       .  A
C3127      C3128   1.409       .  A
C3127      C3132   1.451       .  S
C3128      C3129   1.416       .  A
C3128      C3144   1.451       .  S
C3129      C3130   1.418       .  A
C3130      C3133   1.450       .  S
C3131      C3134   1.410       .  A
C3131      C3138   1.411       .  A
C3132      N3149   1.157       .  T
C3133      N3151   1.157       .  T
C3134      C3135   1.410       .  A
C3134      C3139   1.451       .  S
C3135      C3136   1.416       .  A
C3135      C3141   1.451       .  S
C3136      C3137   1.417       .  A
C3137      C3138   1.413       .  A
C3137      C3140   1.451       .  S
C3138      C3142   1.451       .  S
C3139      N3146   1.157       .  T
C3140      N3147   1.157       .  T
C3141      N3145   1.157       .  T
C3142      N3148   1.157       .  T
C3143      N3152   1.157       .  T
C3144      N3150   1.157       .  T
C3153      C3154   1.404       .  A
C3153      C3158   1.415       .  A
C3153      C3171   1.452       .  S
C3154      C3159   1.501       .  S
C3154      C3155   1.403       .  A
C3155      C3156   1.415       .  A
C3155      C3160   1.455       .  S
C3156      C3157   1.434       .  A
C3156      C3172   1.445       .  S
C3157      C3158   1.434       .  A
C3158      C3161   1.453       .  S
C3159      C3162   1.410       .  A
C3159      C3166   1.409       .  A
C3160      N3177   1.157       .  T
C3161      N3179   1.157       .  T
C3162      C3163   1.413       .  A
C3162      C3167   1.451       .  S
C3163      C3164   1.417       .  A
C3163      C3169   1.451       .  S
C3164      C3165   1.419   1_565  A
C3165      C3166   1.414   1_545  A
C3165      C3168   1.451       .  S
C3166      C3170   1.451   1_565  S
C3167      N3174   1.157       .  T
C3168      N3175   1.157       .  T
C3169      N3173   1.157       .  T
C3170      N3176   1.157       .  T
C3171      N3180   1.157       .  T
C3172      N3178   1.158       .  T
C3181      C3182   1.410       .  A
C3181      C3186   1.413       .  A
C3181      C3199   1.451       .  S
C3182      C3187   1.499       .  S
C3182      C3183   1.409       .  A
C3183      C3184   1.412       .  A
C3183      C3188   1.451       .  S
C3184      C3185   1.419       .  A
C3184      C3200   1.452       .  S
C3185      C3186   1.418       .  A
C3186      C3189   1.451       .  S
C3187      C3190   1.410       .  A
C3187      C3194   1.410       .  A
C3188      N3205   1.157       .  T
C3189      N3207   1.157       .  T
C3190      C3191   1.412       .  A
C3190      C3195   1.451       .  S
C3191      C3192   1.417       .  A
C3191      C3197   1.451       .  S
C3192      C3193   1.418       .  A
C3193      C3194   1.413       .  A
C3193      C3196   1.451       .  S
C3194      C3198   1.451       .  S
C3195      N3202   1.157       .  T
C3196      N3203   1.158       .  T
C3197      N3201   1.157       .  T
C3198      N3204   1.157       .  T
C3199      N3208   1.157       .  T
C3200      N3206   1.158       .  T
C3209      C3210   1.410       .  A
C3209      C3214   1.413       .  A
C3209      C3227   1.450       .  S
C3210      C3215   1.499       .  S
C3210      C3211   1.410       .  A
C3211      C3212   1.411       .  A
C3211      C3216   1.452       .  S
C3212      C3213   1.418       .  A
C3212      C3228   1.451       .  S
C3213      C3214   1.416       .  A
C3214      C3217   1.450       .  S
C3215      C3218   1.410       .  A
C3215      C3222   1.410       .  A
C3216      N3233   1.157       .  T
C3217      N3235   1.157       .  T
C3218      C3219   1.412       .  A
C3218      C3223   1.451       .  S
C3219      C3220   1.418       .  A
C3219      C3225   1.451       .  S
C3220      C3221   1.417       .  A
C3221      C3222   1.413       .  A
C3221      C3224   1.451   1_545  S
C3222      C3226   1.450   1_545  S
C3223      N3230   1.157       .  T
C3224      N3231   1.157       .  T
C3225      N3229   1.157       .  T
C3226      N3232   1.157       .  T
C3227      N3236   1.157       .  T
C3228      N3234   1.157       .  T
C3237      C3238   1.408       .  A
C3237      C3242   1.409       .  A
C3237      C3255   1.452       .  S
C3238      C3243   1.493       .  S
C3238      C3239   1.409       .  A
C3239      C3240   1.412       .  A
C3239      C3244   1.451   1_545  S
C3240      C3241   1.419       .  A
C3240      C3256   1.451   1_545  S
C3241      C3242   1.419       .  A
C3242      C3245   1.452       .  S
C3243      C3246   1.411       .  A
C3243      C3250   1.408       .  A
C3244      N3261   1.157       .  T
C3245      N3263   1.157       .  T
C3246      C3247   1.412       .  A
C3246      C3251   1.450       .  S
C3247      C3248   1.415       .  A
C3247      C3253   1.451       .  S
C3248      C3249   1.416       .  A
C3249      C3250   1.407       .  A
C3249      C3252   1.452       .  S
C3250      C3254   1.451       .  S
C3251      N3258   1.157       .  T
C3252      N3259   1.157       .  T
C3253      N3257   1.157       .  T
C3254      N3260   1.157       .  T
C3255      N3264   1.157       .  T
C3256      N3262   1.157       .  T
C3265      C3266   1.412       .  A
C3265      C3270   1.414       .  A
C3265      C3283   1.450       .  S
C3266      C3271   1.503       .  S
C3266      C3267   1.412       .  A
C3267      C3268   1.413       .  A
C3267      C3272   1.450       .  S
C3268      C3269   1.414       .  A
C3268      C3284   1.451       .  S
C3269      C3270   1.414       .  A
C3270      C3273   1.450       .  S
C3271      C3274   1.405       .  A
C3271      C3278   1.407       .  A
C3272      N3289   1.157       .  T
C3273      N3291   1.157       .  T
C3274      C3275   1.415       .  A
C3274      C3279   1.453       .  S
C3275      C3276   1.428       .  A
C3275      C3281   1.446       .  S
C3276      C3277   1.429       .  A
C3277      C3278   1.416       .  A
C3277      C3280   1.452       .  S
C3278      C3282   1.450       .  S
C3279      N3286   1.157       .  T
C3280      N3287   1.157       .  T
C3281      N3285   1.157       .  T
C3282      N3288   1.157       .  T
C3283      N3292   1.157       .  T
C3284      N3290   1.157       .  T
C3293      C3294   1.410       .  A
C3293      C3298   1.412       .  A
C3293      C3311   1.452       .  S
C3294      C3299   1.498       .  S
C3294      C3295   1.408       .  A
C3295      C3296   1.411       .  A
C3295      C3300   1.452       .  S
C3296      C3297   1.423       .  A
C3296      C3312   1.451       .  S
C3297      C3298   1.421       .  A
C3298      C3301   1.451       .  S
C3299      C3302   1.407       .  A
C3299      C3306   1.405       .  A
C3300      N3317   1.157       .  T
C3301      N3319   1.158       .  T
C3302      C3303   1.414       .  A
C3302      C3307   1.452       .  S
C3303      C3304   1.428       .  A
C3303      C3309   1.450       .  S
C3304      C3305   1.429       .  A
C3305      C3306   1.410       .  A
C3305      C3308   1.451       .  S
C3306      C3310   1.452       .  S
C3307      N3314   1.157       .  T
C3308      N3315   1.157       .  T
C3309      N3313   1.158       .  T
C3310      N3316   1.157       .  T
C3311      N3320   1.157       .  T
C3312      N3318   1.158       .  T
C3321      C3322   1.412       .  A
C3321      C3326   1.411       .  A
C3321      C3339   1.451       .  S
C3322      C3327   1.501       .  S
C3322      C3323   1.411       .  A
C3323      C3324   1.414       .  A
C3323      C3328   1.450       .  S
C3324      C3325   1.416       .  A
C3324      C3340   1.451       .  S
C3325      C3326   1.416       .  A
C3326      C3329   1.451       .  S
C3327      C3330   1.411       .  A
C3327      C3334   1.411       .  A
C3328      N3345   1.157       .  T
C3329      N3347   1.157       .  T
C3330      C3331   1.411       .  A
C3330      C3335   1.451       .  S
C3331      C3332   1.417       .  A
C3331      C3337   1.451       .  S
C3332      C3333   1.417       .  A
C3333      C3334   1.414       .  A
C3333      C3336   1.450       .  S
C3334      C3338   1.450       .  S
C3335      N3342   1.157       .  T
C3336      N3343   1.157       .  T
C3337      N3341   1.157       .  T
C3338      N3344   1.157       .  T
C3339      N3348   1.157       .  T
C3340      N3346   1.157       .  T
C3349      C3350   1.409       .  A
C3349      C3354   1.417       .  A
C3349      C3367   1.451       .  S
C3350      C3355   1.503       .  S
C3350      C3351   1.407       .  A
C3351      C3352   1.411       .  A
C3351      C3356   1.451       .  S
C3352      C3353   1.424       .  A
C3352      C3368   1.449       .  S
C3353      C3354   1.426       .  A
C3354      C3357   1.449       .  S
C3355      C3358   1.409       .  A
C3355      C3362   1.411       .  A
C3356      N3373   1.157   1_565  T
C3357      N3375   1.158       .  T
C3358      C3359   1.415       .  A
C3358      C3363   1.451       .  S
C3359      C3360   1.421   1_565  A
C3359      C3365   1.451       .  S
C3360      C3361   1.420       .  A
C3361      C3362   1.414   1_545  A
C3361      C3364   1.451       .  S
C3362      C3366   1.451       .  S
C3363      N3370   1.157       .  T
C3364      N3371   1.157       .  T
C3365      N3369   1.157       .  T
C3366      N3372   1.157       .  T
C3367      N3376   1.157       .  T
C3368      N3374   1.157       .  T
C3377      C3378   1.409       .  A
C3377      C3382   1.414       .  A
C3377      C3395   1.451       .  S
C3378      C3383   1.501       .  S
C3378      C3379   1.409       .  A
C3379      C3380   1.414       .  A
C3379      C3384   1.451       .  S
C3380      C3381   1.422       .  A
C3380      C3396   1.451       .  S
C3381      C3382   1.420       .  A
C3382      C3385   1.450       .  S
C3383      C3386   1.411       .  A
C3383      C3390   1.409       .  A
C3384      N3401   1.157       .  T
C3385      N3403   1.157       .  T
C3386      C3387   1.416       .  A
C3386      C3391   1.450       .  S
C3387      C3388   1.418       .  A
C3387      C3393   1.450       .  S
C3388      C3389   1.420       .  A
C3389      C3390   1.411       .  A
C3389      C3392   1.452       .  S
C3390      C3394   1.452       .  S
C3391      N3398   1.157       .  T
C3392      N3399   1.157       .  T
C3393      N3397   1.157       .  T
C3394      N3400   1.157       .  T
C3395      N3404   1.157       .  T
C3396      N3402   1.158       .  T
C3405      C3406   1.411       .  A
C3405      C3410   1.413       .  A
C3405      C3423   1.451   1_565  S
C3406      C3411   1.500   1_565  S
C3406      C3407   1.410       .  A
C3407      C3408   1.413       .  A
C3407      C3412   1.450       .  S
C3408      C3409   1.417       .  A
C3408      C3424   1.451       .  S
C3409      C3410   1.417       .  A
C3410      C3413   1.451       .  S
C3411      C3414   1.407   1_545  A
C3411      C3418   1.408       .  A
C3412      N3429   1.157       .  T
C3413      N3431   1.157       .  T
C3414      C3415   1.412   1_565  A
C3414      C3419   1.451       .  S
C3415      C3416   1.427       .  A
C3415      C3421   1.451   1_545  S
C3416      C3417   1.425       .  A
C3417      C3418   1.414       .  A
C3417      C3420   1.450       .  S
C3418      C3422   1.451       .  S
C3419      N3426   1.157       .  T
C3420      N3427   1.157       .  T
C3421      N3425   1.158       .  T
C3422      N3428   1.157       .  T
C3423      N3432   1.157       .  T
C3424      N3430   1.157       .  T
C3433      C3434   1.409       .  A
C3433      C3438   1.413       .  A
C3433      C3451   1.450       .  S
C3434      C3439   1.497       .  S
C3434      C3435   1.409       .  A
C3435      C3436   1.410       .  A
C3435      C3440   1.452       .  S
C3436      C3437   1.419       .  A
C3436      C3452   1.451       .  S
C3437      C3438   1.418       .  A
C3438      C3441   1.450       .  S
C3439      C3442   1.409       .  A
C3439      C3446   1.410       .  A
C3440      N3457   1.157       .  T
C3441      N3459   1.157       .  T
C3442      C3443   1.412       .  A
C3442      C3447   1.450       .  S
C3443      C3444   1.416       .  A
C3443      C3449   1.450       .  S
C3444      C3445   1.419       .  A
C3445      C3446   1.410       .  A
C3445      C3448   1.452       .  S
C3446      C3450   1.452       .  S
C3447      N3454   1.157       .  T
C3448      N3455   1.158       .  T
C3449      N3453   1.157       .  T
C3450      N3456   1.157       .  T
C3451      N3460   1.157       .  T
C3452      N3458   1.157       .  T
C3461      C3462   1.411       .  A
C3461      C3466   1.410       .  A
C3461      C3479   1.451       .  S
C3462      C3467   1.501       .  S
C3462      C3463   1.412       .  A
C3463      C3464   1.413       .  A
C3463      C3468   1.450   1_565  S
C3464      C3465   1.415       .  A
C3464      C3480   1.451       .  S
C3465      C3466   1.416       .  A
C3466      C3469   1.451       .  S
C3467      C3470   1.410   1_565  A
C3467      C3474   1.410       .  A
C3468      N3485   1.157       .  T
C3469      N3487   1.157       .  T
C3470      C3471   1.414       .  A
C3470      C3475   1.451       .  S
C3471      C3472   1.419       .  A
C3471      C3477   1.451       .  S
C3472      C3473   1.419   1_545  A
C3473      C3474   1.412       .  A
C3473      C3476   1.451       .  S
C3474      C3478   1.452       .  S
C3475      N3482   1.157       .  T
C3476      N3483   1.157       .  T
C3477      N3481   1.157       .  T
C3478      N3484   1.157       .  T
C3479      N3488   1.157       .  T
C3480      N3486   1.157   1_565  T
C3489      C3490   1.411       .  A
C3489      C3494   1.412       .  A
C3489      C3507   1.451       .  S
C3490      C3495   1.497       .  S
C3490      C3491   1.409       .  A
C3491      C3492   1.409       .  A
C3491      C3496   1.451       .  S
C3492      C3493   1.417       .  A
C3492      C3508   1.451       .  S
C3493      C3494   1.416       .  A
C3494      C3497   1.451       .  S
C3495      C3498   1.403       .  A
C3495      C3502   1.403       .  A
C3496      N3513   1.157       .  T
C3497      N3515   1.157       .  T
C3498      C3499   1.413       .  A
C3498      C3503   1.454       .  S
C3499      C3500   1.431       .  A
C3499      C3505   1.446       .  S
C3500      C3501   1.434       .  A
C3501      C3502   1.414       .  A
C3501      C3504   1.450       .  S
C3502      C3506   1.452       .  S
C3503      N3510   1.157       .  T
C3504      N3511   1.157       .  T
C3505      N3509   1.156       .  T
C3506      N3512   1.157       .  T
C3507      N3516   1.157       .  T
C3508      N3514   1.157       .  T
C3517      C3518   1.409       .  A
C3517      C3522   1.412       .  A
C3517      C3535   1.451       .  S
C3518      C3523   1.497       .  S
C3518      C3519   1.409       .  A
C3519      C3520   1.412       .  A
C3519      C3524   1.451       .  S
C3520      C3521   1.419       .  A
C3520      C3536   1.451       .  S
C3521      C3522   1.421       .  A
C3522      C3525   1.452       .  S
C3523      C3526   1.410       .  A
C3523      C3530   1.409       .  A
C3524      N3541   1.157       .  T
C3525      N3543   1.158       .  T
C3526      C3527   1.412       .  A
C3526      C3531   1.450       .  S
C3527      C3528   1.417       .  A
C3527      C3533   1.451       .  S
C3528      C3529   1.418       .  A
C3529      C3530   1.412       .  A
C3529      C3532   1.451       .  S
C3530      C3534   1.451       .  S
C3531      N3538   1.157       .  T
C3532      N3539   1.157       .  T
C3533      N3537   1.157       .  T
C3534      N3540   1.157       .  T
C3535      N3544   1.157       .  T
C3536      N3542   1.157       .  T
C3545      C3546   1.403       .  A
C3545      C3550   1.413       .  A
C3545      C3563   1.453       .  S
C3546      C3551   1.496       .  S
C3546      C3547   1.403       .  A
C3547      C3548   1.414       .  A
C3547      C3552   1.454       .  S
C3548      C3549   1.433       .  A
C3548      C3564   1.447       .  S
C3549      C3550   1.434       .  A
C3550      C3553   1.450       .  S
C3551      C3554   1.411       .  A
C3551      C3558   1.411       .  A
C3552      N3569   1.157       .  T
C3553      N3571   1.157       .  T
C3554      C3555   1.410       .  A
C3554      C3559   1.451       .  S
C3555      C3556   1.414       .  A
C3555      C3561   1.452       .  S
C3556      C3557   1.413       .  A
C3557      C3558   1.410       .  A
C3557      C3560   1.451       .  S
C3558      C3562   1.450       .  S
C3559      N3566   1.157       .  T
C3560      N3567   1.157       .  T
C3561      N3565   1.157       .  T
C3562      N3568   1.157       .  T
C3563      N3572   1.157       .  T
C3564      N3570   1.157       .  T
C3573      C3574   1.408       .  A
C3573      C3578   1.410       .  A
C3573      C3591   1.451       .  S
C3574      C3579   1.495       .  S
C3574      C3575   1.409       .  A
C3575      C3576   1.412       .  A
C3575      C3580   1.451       .  S
C3576      C3577   1.419       .  A
C3576      C3592   1.451       .  S
C3577      C3578   1.418       .  A
C3578      C3581   1.451       .  S
C3579      C3582   1.410       .  A
C3579      C3586   1.410       .  A
C3580      N3597   1.157       .  T
C3581      N3599   1.157       .  T
C3582      C3583   1.411       .  A
C3582      C3587   1.451       .  S
C3583      C3584   1.417       .  A
C3583      C3589   1.451       .  S
C3584      C3585   1.416       .  A
C3585      C3586   1.410       .  A
C3585      C3588   1.452       .  S
C3586      C3590   1.451       .  S
C3587      N3594   1.157       .  T
C3588      N3595   1.157       .  T
C3589      N3593   1.157       .  T
C3590      N3596   1.157       .  T
C3591      N3600   1.157       .  T
C3592      N3598   1.158       .  T
C3601      C3602   1.408       .  A
C3601      C3606   1.407       .  A
C3601      C3619   1.452       .  S
C3602      C3607   1.493       .  S
C3602      C3603   1.410       .  A
C3603      C3604   1.413       .  A
C3603      C3608   1.451       .  S
C3604      C3605   1.417       .  A
C3604      C3620   1.450       .  S
C3605      C3606   1.417       .  A
C3606      C3609   1.452       .  S
C3607      C3610   1.409       .  A
C3607      C3614   1.409       .  A
C3608      N3625   1.157       .  T
C3609      N3627   1.157       .  T
C3610      C3611   1.409       .  A
C3610      C3615   1.451       .  S
C3611      C3612   1.417       .  A
C3611      C3617   1.452       .  S
C3612      C3613   1.417       .  A
C3613      C3614   1.410       .  A
C3613      C3616   1.451       .  S
C3614      C3618   1.451       .  S
C3615      N3622   1.157       .  T
C3616      N3623   1.157       .  T
C3617      N3621   1.157       .  T
C3618      N3624   1.157       .  T
C3619      N3628   1.157       .  T
C3620      N3626   1.157       .  T
C3629      C3630   1.408       .  A
C3629      C3634   1.414       .  A
C3629      C3647   1.452       .  S
C3630      C3635   1.499       .  S
C3630      C3631   1.406       .  A
C3631      C3632   1.411       .  A
C3631      C3636   1.452       .  S
C3632      C3633   1.427       .  A
C3632      C3648   1.450       .  S
C3633      C3634   1.428       .  A
C3634      C3637   1.451       .  S
C3635      C3638   1.410       .  A
C3635      C3642   1.410       .  A
C3636      N3653   1.157   1_565  T
C3637      N3655   1.158       .  T
C3638      C3639   1.412       .  A
C3638      C3643   1.451       .  S
C3639      C3640   1.418   1_565  A
C3639      C3645   1.451       .  S
C3640      C3641   1.418   1_545  A
C3641      C3642   1.411       .  A
C3641      C3644   1.451   1_565  S
C3642      C3646   1.451       .  S
C3643      N3650   1.157       .  T
C3644      N3651   1.157       .  T
C3645      N3649   1.157       .  T
C3646      N3652   1.157       .  T
C3647      N3656   1.157       .  T
C3648      N3654   1.157       .  T
C3657      C3658   1.410       .  A
C3657      C3662   1.414       .  A
C3657      C3675   1.450       .  S
C3658      C3663   1.501       .  S
C3658      C3659   1.411       .  A
C3659      C3660   1.411       .  A
C3659      C3664   1.452       .  S
C3660      C3661   1.419       .  A
C3660      C3676   1.452       .  S
C3661      C3662   1.419       .  A
C3662      C3665   1.451       .  S
C3663      C3666   1.411       .  A
C3663      C3670   1.411       .  A
C3664      N3681   1.157       .  T
C3665      N3683   1.157       .  T
C3666      C3667   1.413       .  A
C3666      C3671   1.451       .  S
C3667      C3668   1.417       .  A
C3667      C3673   1.450       .  S
C3668      C3669   1.418       .  A
C3669      C3670   1.412       .  A
C3669      C3672   1.452       .  S
C3670      C3674   1.451       .  S
C3671      N3678   1.157       .  T
C3672      N3679   1.157       .  T
C3673      N3677   1.157       .  T
C3674      N3680   1.157       .  T
C3675      N3684   1.157       .  T
C3676      N3682   1.158       .  T
C3685      C3686   1.410       .  A
C3685      C3690   1.413       .  A
C3685      C3703   1.451       .  S
C3686      C3691   1.500       .  S
C3686      C3687   1.410       .  A
C3687      C3688   1.413       .  A
C3687      C3692   1.451   1_545  S
C3688      C3689   1.418       .  A
C3688      C3704   1.451   1_545  S
C3689      C3690   1.418       .  A
C3690      C3693   1.451       .  S
C3691      C3694   1.410       .  A
C3691      C3698   1.410       .  A
C3692      N3709   1.157       .  T
C3693      N3711   1.157       .  T
C3694      C3695   1.411       .  A
C3694      C3699   1.451       .  S
C3695      C3696   1.418       .  A
C3695      C3701   1.452       .  S
C3696      C3697   1.418       .  A
C3697      C3698   1.414       .  A
C3697      C3700   1.451       .  S
C3698      C3702   1.450       .  S
C3699      N3706   1.157       .  T
C3700      N3707   1.157       .  T
C3701      N3705   1.158       .  T
C3702      N3708   1.157       .  T
C3703      N3712   1.157       .  T
C3704      N3710   1.157       .  T
C3713      C3714   1.409       .  A
C3713      C3718   1.413       .  A
C3713      C3731   1.451       .  S
C3714      C3719   1.501   1_565  S
C3714      C3715   1.410       .  A
C3715      C3716   1.412       .  A
C3715      C3720   1.451       .  S
C3716      C3717   1.418       .  A
C3716      C3732   1.451       .  S
C3717      C3718   1.420       .  A
C3718      C3721   1.451       .  S
C3719      C3722   1.405       .  A
C3719      C3726   1.403   1_545  A
C3720      N3737   1.157       .  T
C3721      N3739   1.157       .  T
C3722      C3723   1.416       .  A
C3722      C3727   1.453       .  S
C3723      C3724   1.430       .  A
C3723      C3729   1.446       .  S
C3724      C3725   1.435       .  A
C3725      C3726   1.413   1_545  A
C3725      C3728   1.452       .  S
C3726      C3730   1.453       .  S
C3727      N3734   1.157       .  T
C3728      N3735   1.157   1_545  T
C3729      N3733   1.157       .  T
C3730      N3736   1.157       .  T
C3731      N3740   1.157   1_565  T
C3732      N3738   1.157       .  T
C3741      C3742   1.409       .  A
C3741      C3746   1.413       .  A
C3741      C3759   1.450       .  S
C3742      C3747   1.498       .  S
C3742      C3743   1.410       .  A
C3743      C3744   1.411       .  A
C3743      C3748   1.452       .  S
C3744      C3745   1.419       .  A
C3744      C3760   1.452       .  S
C3745      C3746   1.418       .  A
C3746      C3749   1.450       .  S
C3747      C3750   1.410       .  A
C3747      C3754   1.410       .  A
C3748      N3765   1.157       .  T
C3749      N3767   1.157       .  T
C3750      C3751   1.412       .  A
C3750      C3755   1.450       .  S
C3751      C3752   1.417       .  A
C3751      C3757   1.451       .  S
C3752      C3753   1.419       .  A
C3753      C3754   1.411       .  A
C3753      C3756   1.452       .  S
C3754      C3758   1.451       .  S
C3755      N3762   1.157       .  T
C3756      N3763   1.157       .  T
C3757      N3761   1.157       .  T
C3758      N3764   1.157       .  T
C3759      N3768   1.157       .  T
C3760      N3766   1.158       .  T
C3769      C3770   1.409       .  A
C3769      C3774   1.413       .  A
C3769      C3787   1.450       .  S
C3770      C3775   1.497       .  S
C3770      C3771   1.409       .  A
C3771      C3772   1.410       .  A
C3771      C3776   1.452       .  S
C3772      C3773   1.418       .  A
C3772      C3788   1.451       .  S
C3773      C3774   1.417       .  A
C3774      C3777   1.450       .  S
C3775      C3778   1.410       .  A
C3775      C3782   1.410       .  A
C3776      N3793   1.157       .  T
C3777      N3795   1.157       .  T
C3778      C3779   1.411       .  A
C3778      C3783   1.451       .  S
C3779      C3780   1.416       .  A
C3779      C3785   1.451       .  S
C3780      C3781   1.418       .  A
C3781      C3782   1.412       .  A
C3781      C3784   1.452       .  S
C3782      C3786   1.450       .  S
C3783      N3790   1.157       .  T
C3784      N3791   1.158       .  T
C3785      N3789   1.157       .  T
C3786      N3792   1.157       .  T
C3787      N3796   1.157       .  T
C3788      N3794   1.157       .  T
C3797      C3798   1.410       .  A
C3797      C3802   1.411       .  A
C3797      C3815   1.452       .  S
C3798      C3803   1.497       .  S
C3798      C3799   1.409   1_565  A
C3799      C3800   1.412       .  A
C3799      C3804   1.451       .  S
C3800      C3801   1.419       .  A
C3800      C3816   1.451       .  S
C3801      C3802   1.418   1_545  A
C3802      C3805   1.451       .  S
C3803      C3806   1.409       .  A
C3803      C3810   1.410       .  A
C3804      N3821   1.157       .  T
C3805      N3823   1.157       .  T
C3806      C3807   1.412       .  A
C3806      C3811   1.451       .  S
C3807      C3808   1.418       .  A
C3807      C3813   1.451       .  S
C3808      C3809   1.419       .  A
C3809      C3810   1.411       .  A
C3809      C3812   1.451       .  S
C3810      C3814   1.452       .  S
C3811      N3818   1.157       .  T
C3812      N3819   1.157       .  T
C3813      N3817   1.157       .  T
C3814      N3820   1.157   1_565  T
C3815      N3824   1.157       .  T
C3816      N3822   1.157       .  T
C3825      C3826   1.404       .  A
C3825      C3830   1.415       .  A
C3825      C3843   1.453       .  S
C3826      C3831   1.502       .  S
C3826      C3827   1.405       .  A
C3827      C3828   1.415       .  A
C3827      C3832   1.452       .  S
C3828      C3829   1.434       .  A
C3828      C3844   1.451       .  S
C3829      C3830   1.430       .  A
C3830      C3833   1.447       .  S
C3831      C3834   1.410       .  A
C3831      C3838   1.411       .  A
C3832      N3849   1.157   1_565  T
C3833      N3851   1.157       .  T
C3834      C3835   1.415       .  A
C3834      C3839   1.450       .  S
C3835      C3836   1.417   1_565  A
C3835      C3841   1.450       .  S
C3836      C3837   1.417   1_545  A
C3837      C3838   1.412       .  A
C3837      C3840   1.451   1_565  S
C3838      C3842   1.451       .  S
C3839      N3846   1.157       .  T
C3840      N3847   1.157       .  T
C3841      N3845   1.157       .  T
C3842      N3848   1.157       .  T
C3843      N3852   1.157       .  T
C3844      N3850   1.158       .  T
C3853      C3854   1.407       .  A
C3853      C3858   1.412       .  A
C3853      C3871   1.451       .  S
C3854      C3859   1.498       .  S
C3854      C3855   1.408       .  A
C3855      C3856   1.411       .  A
C3855      C3860   1.453       .  S
C3856      C3857   1.421       .  A
C3856      C3872   1.447       .  S
C3857      C3858   1.422       .  A
C3858      C3861   1.450       .  S
C3859      C3862   1.411       .  A
C3859      C3866   1.408       .  A
C3860      N3877   1.157       .  T
C3861      N3879   1.157       .  T
C3862      C3863   1.413       .  A
C3862      C3867   1.451       .  S
C3863      C3864   1.417       .  A
C3863      C3869   1.450       .  S
C3864      C3865   1.422       .  A
C3865      C3866   1.409       .  A
C3865      C3868   1.452       .  S
C3866      C3870   1.452       .  S
C3867      N3874   1.157       .  T
C3868      N3875   1.157       .  T
C3869      N3873   1.157       .  T
C3870      N3876   1.157       .  T
C3871      N3880   1.157       .  T
C3872      N3878   1.156       .  T
C3881      C3882   1.406       .  A
C3881      C3886   1.413       .  A
C3881      C3899   1.453       .  S
C3882      C3887   1.502       .  S
C3882      C3883   1.406       .  A
C3883      C3884   1.415       .  A
C3883      C3888   1.451       .  S
C3884      C3885   1.429       .  A
C3884      C3900   1.451       .  S
C3885      C3886   1.431       .  A
C3886      C3889   1.451       .  S
C3887      C3890   1.411       .  A
C3887      C3894   1.411   1_565  A
C3888      N3905   1.157       .  T
C3889      N3907   1.158       .  T
C3890      C3891   1.410       .  A
C3890      C3895   1.451       .  S
C3891      C3892   1.415   1_565  A
C3891      C3897   1.451       .  S
C3892      C3893   1.416       .  A
C3893      C3894   1.415       .  A
C3893      C3896   1.450       .  S
C3894      C3898   1.450       .  S
C3895      N3902   1.157       .  T
C3896      N3903   1.157       .  T
C3897      N3901   1.157       .  T
C3898      N3904   1.157       .  T
C3899      N3908   1.157       .  T
C3900      N3906   1.158       .  T
C3909      C3910   1.412       .  A
C3909      C3914   1.412       .  A
C3909      C3927   1.451       .  S
C3910      C3915   1.505       .  S
C3910      C3911   1.412       .  A
C3911      C3912   1.415       .  A
C3911      C3916   1.451       .  S
C3912      C3913   1.414       .  A
C3912      C3928   1.445       .  S
C3913      C3914   1.417       .  A
C3914      C3917   1.450       .  S
C3915      C3918   1.412       .  A
C3915      C3922   1.412       .  A
C3916      N3933   1.157       .  T
C3917      N3935   1.157       .  T
C3918      C3919   1.413       .  A
C3918      C3923   1.452       .  S
C3919      C3920   1.414       .  A
C3919      C3925   1.446       .  S
C3920      C3921   1.416       .  A
C3921      C3922   1.412       .  A
C3921      C3924   1.450       .  S
C3922      C3926   1.450       .  S
C3923      N3930   1.157       .  T
C3924      N3931   1.157       .  T
C3925      N3929   1.156       .  T
C3926      N3932   1.157       .  T
C3927      N3936   1.157       .  T
C3928      N3934   1.155       .  T
C3937      C3938   1.404       .  A
C3937      C3942   1.415       .  A
C3937      C3955   1.453       .  S
C3938      C3943   1.505       .  S
C3938      C3939   1.405       .  A
C3939      C3940   1.417       .  A
C3939      C3944   1.453       .  S
C3940      C3941   1.432       .  A
C3940      C3956   1.447       .  S
C3941      C3942   1.436       .  A
C3942      C3945   1.451       .  S
C3943      C3946   1.411       .  A
C3943      C3950   1.409       .  A
C3944      N3961   1.157       .  T
C3945      N3963   1.158       .  T
C3946      C3947   1.416       .  A
C3946      C3951   1.451       .  S
C3947      C3948   1.420       .  A
C3947      C3953   1.450       .  S
C3948      C3949   1.420       .  A
C3949      C3950   1.413       .  A
C3949      C3952   1.451       .  S
C3950      C3954   1.451       .  S
C3951      N3958   1.157       .  T
C3952      N3959   1.157       .  T
C3953      N3957   1.158       .  T
C3954      N3960   1.157       .  T
C3955      N3964   1.157       .  T
C3956      N3962   1.157       .  T
C3965      C3966   1.409       .  A
C3965      C3970   1.413       .  A
C3965      C3983   1.452       .  S
C3966      C3971   1.503       .  S
C3966      C3967   1.408       .  A
C3967      C3968   1.413       .  A
C3967      C3972   1.452       .  S
C3968      C3969   1.425       .  A
C3968      C3984   1.450       .  S
C3969      C3970   1.421       .  A
C3970      C3973   1.447       .  S
C3971      C3974   1.415       .  A
C3971      C3978   1.414       .  A
C3972      N3989   1.157       .  T
C3973      N3991   1.157       .  T
C3974      C3975   1.412       .  A
C3974      C3979   1.450       .  S
C3975      C3976   1.410       .  A
C3975      C3981   1.451       .  S
C3976      C3977   1.408       .  A
C3977      C3978   1.410       .  A
C3977      C3980   1.451       .  S
C3978      C3982   1.450       .  S
C3979      N3986   1.157       .  T
C3980      N3987   1.157       .  T
C3981      N3985   1.157       .  T
C3982      N3988   1.157       .  T
C3983      N3992   1.157       .  T
C3984      N3990   1.157       .  T
C3993      C3994   1.408       .  A
C3993      C3998   1.415       .  A
C3993      C4011   1.452       .  S
C3994      C3999   1.502       .  S
C3994      C3995   1.407       .  A
C3995      C3996   1.413       .  A
C3995      C4000   1.451       .  S
C3996      C3997   1.424       .  A
C3996      C4012   1.449       .  S
C3997      C3998   1.422       .  A
C3998      C4001   1.447       .  S
C3999      C4002   1.409       .  A
C3999      C4006   1.411       .  A
C4000      N4017   1.157       .  T
C4001      N4019   1.157       .  T
C4002      C4003   1.412       .  A
C4002      C4007   1.450       .  S
C4003      C4004   1.417       .  A
C4003      C4009   1.450       .  S
C4004      C4005   1.414       .  A
C4005      C4006   1.414       .  A
C4005      C4008   1.446       .  S
C4006      C4010   1.451       .  S
C4007      N4014   1.157       .  T
C4008      N4015   1.156       .  T
C4009      N4013   1.157       .  T
C4010      N4016   1.157       .  T
C4011      N4020   1.157       .  T
C4012      N4018   1.157       .  T
C4021      C4022   1.407       .  A
C4021      C4026   1.418       .  A
C4021      C4039   1.452       .  S
C4022      C4027   1.508       .  S
C4022      C4023   1.406       .  A
C4023      C4024   1.416       .  A
C4023      C4028   1.453       .  S
C4024      C4025   1.432       .  A
C4024      C4040   1.448       .  S
C4025      C4026   1.434       .  A
C4026      C4029   1.451       .  S
C4027      C4030   1.413       .  A
C4027      C4034   1.413       .  A
C4028      N4045   1.157       .  T
C4029      N4047   1.158       .  T
C4030      C4031   1.413       .  A
C4030      C4035   1.451       .  S
C4031      C4032   1.416       .  A
C4031      C4037   1.452       .  S
C4032      C4033   1.416       .  A
C4033      C4034   1.416       .  A
C4033      C4036   1.450       .  S
C4034      C4038   1.450       .  S
C4035      N4042   1.157       .  T
C4036      N4043   1.157       .  T
C4037      N4041   1.157       .  T
C4038      N4044   1.157       .  T
C4039      N4048   1.157       .  T
C4040      N4046   1.157       .  T
C4049      C4050   1.410       .  A
C4049      C4054   1.413       .  A
C4049      C4067   1.450       .  S
C4050      C4055   1.499       .  S
C4050      C4051   1.409       .  A
C4051      C4052   1.410       .  A
C4051      C4056   1.451       .  S
C4052      C4053   1.414       .  A
C4052      C4068   1.448       .  S
C4053      C4054   1.418       .  A
C4054      C4057   1.449       .  S
C4055      C4058   1.407       .  A
C4055      C4062   1.407       .  A
C4056      N4073   1.157       .  T
C4057      N4075   1.157       .  T
C4058      C4059   1.413       .  A
C4058      C4063   1.452       .  S
C4059      C4060   1.422       .  A
C4059      C4065   1.447       .  S
C4060      C4061   1.424       .  A
C4061      C4062   1.413       .  A
C4061      C4064   1.450       .  S
C4062      C4066   1.451       .  S
C4063      N4070   1.157       .  T
C4064      N4071   1.157       .  T
C4065      N4069   1.157       .  T
C4066      N4072   1.157       .  T
C4067      N4076   1.157       .  T
C4068      N4074   1.156       .  T
C4077      C4078   1.404       .  A
C4077      C4082   1.414       .  A
C4077      C4095   1.453       .  S
C4078      C4083   1.496       .  S
C4078      C4079   1.403       .  A
C4079      C4080   1.413       .  A
C4079      C4084   1.453       .  S
C4080      C4081   1.433       .  A
C4080      C4096   1.450       .  S
C4081      C4082   1.429       .  A
C4082      C4085   1.446       .  S
C4083      C4086   1.408       .  A
C4083      C4090   1.410       .  A
C4084      N4101   1.157       .  T
C4085      N4103   1.156       .  T
C4086      C4087   1.410   1_565  A
C4086      C4091   1.451   1_565  S
C4087      C4088   1.419       .  A
C4087      C4093   1.451       .  S
C4088      C4089   1.417   1_545  A
C4089      C4090   1.411       .  A
C4089      C4092   1.451       .  S
C4090      C4094   1.451       .  S
C4091      N4098   1.157       .  T
C4092      N4099   1.157       .  T
C4093      N4097   1.157       .  T
C4094      N4100   1.157       .  T
C4095      N4104   1.157       .  T
C4096      N4102   1.157       .  T
C4105      C4106   1.406       .  A
C4105      C4110   1.409       .  A
C4105      C4123   1.451       .  S
C4106      C4111   1.496       .  S
C4106      C4107   1.409       .  A
C4107      C4108   1.414       .  A
C4107      C4112   1.452       .  S
C4108      C4109   1.418       .  A
C4108      C4124   1.446       .  S
C4109      C4110   1.421       .  A
C4110      C4113   1.451       .  S
C4111      C4114   1.403       .  A
C4111      C4118   1.403       .  A
C4112      N4129   1.157       .  T
C4113      N4131   1.157       .  T
C4114      C4115   1.414       .  A
C4114      C4119   1.453       .  S
C4115      C4116   1.431       .  A
C4115      C4121   1.450       .  S
C4116      C4117   1.431       .  A
C4117      C4118   1.413       .  A
C4117      C4120   1.447       .  S
C4118      C4122   1.454       .  S
C4119      N4126   1.157       .  T
C4120      N4127   1.157       .  T
C4121      N4125   1.158       .  T
C4122      N4128   1.157       .  T
C4123      N4132   1.157       .  T
C4124      N4130   1.157       .  T
C4133      C4134   1.415       .  A
C4133      C4138   1.411       .  A
C4133      C4151   1.450       .  S
C4134      C4139   1.506       .  S
C4134      C4135   1.415       .  A
C4135      C4136   1.411       .  A
C4135      C4140   1.452       .  S
C4136      C4137   1.410       .  A
C4136      C4152   1.448       .  S
C4137      C4138   1.411       .  A
C4138      C4141   1.452       .  S
C4139      C4142   1.411       .  A
C4139      C4146   1.411       .  A
C4140      N4157   1.157       .  T
C4141      N4159   1.157       .  T
C4142      C4143   1.413       .  A
C4142      C4147   1.452       .  S
C4143      C4144   1.427       .  A
C4143      C4149   1.451       .  S
C4144      C4145   1.421       .  A
C4145      C4146   1.411       .  A
C4145      C4148   1.448       .  S
C4146      C4150   1.453       .  S
C4147      N4154   1.157       .  T
C4148      N4155   1.157       .  T
C4149      N4153   1.158       .  T
C4150      N4156   1.157       .  T
C4151      N4160   1.157       .  T
C4152      N4158   1.156       .  T
C4161      C4162   1.403       .  A
C4161      C4166   1.411       .  A
C4161      C4179   1.453       .  S
C4162      C4167   1.501       .  S
C4162      C4163   1.405       .  A
C4163      C4164   1.417       .  A
C4163      C4168   1.453       .  S
C4164      C4165   1.434       .  A
C4164      C4180   1.447       .  S
C4165      C4166   1.434       .  A
C4166      C4169   1.452       .  S
C4167      C4170   1.409       .  A
C4167      C4174   1.410       .  A
C4168      N4185   1.157       .  T
C4169      N4187   1.157       .  T
C4170      C4171   1.412   1_565  A
C4170      C4175   1.451   1_565  S
C4171      C4172   1.420       .  A
C4171      C4177   1.451       .  S
C4172      C4173   1.420   1_545  A
C4173      C4174   1.413       .  A
C4173      C4176   1.451       .  S
C4174      C4178   1.451       .  S
C4175      N4182   1.157       .  T
C4176      N4183   1.157       .  T
C4177      N4181   1.157       .  T
C4178      N4184   1.157       .  T
C4179      N4188   1.157       .  T
C4180      N4186   1.158       .  T
C4189      C4190   1.407       .  A
C4189      C4194   1.409       .  A
C4189      C4207   1.452       .  S
C4190      C4195   1.498       .  S
C4190      C4191   1.408       .  A
C4191      C4192   1.415       .  A
C4191      C4196   1.451       .  S
C4192      C4193   1.425       .  A
C4192      C4208   1.451       .  S
C4193      C4194   1.421       .  A
C4194      C4197   1.448       .  S
C4195      C4198   1.409       .  A
C4195      C4202   1.408       .  A
C4196      N4213   1.157       .  T
C4197      N4215   1.157       .  T
C4198      C4199   1.412       .  A
C4198      C4203   1.451       .  S
C4199      C4200   1.420       .  A
C4199      C4205   1.451       .  S
C4200      C4201   1.416       .  A
C4201      C4202   1.411       .  A
C4201      C4204   1.447       .  S
C4202      C4206   1.452       .  S
C4203      N4210   1.157       .  T
C4204      N4211   1.156       .  T
C4205      N4209   1.157       .  T
C4206      N4212   1.157       .  T
C4207      N4216   1.157       .  T
C4208      N4214   1.157       .  T
C4217      C4218   1.413       .  A
C4217      C4222   1.411       .  A
C4217      C4235   1.450       .  S
C4218      C4223   1.502       .  S
C4218      C4219   1.414       .  A
C4219      C4220   1.410       .  A
C4219      C4224   1.450       .  S
C4220      C4221   1.410       .  A
C4220      C4236   1.450       .  S
C4221      C4222   1.414       .  A
C4222      C4225   1.451       .  S
C4223      C4226   1.410       .  A
C4223      C4230   1.409       .  A
C4224      N4241   1.157       .  T
C4225      N4243   1.157       .  T
C4226      C4227   1.414       .  A
C4226      C4231   1.452       .  S
C4227      C4228   1.419       .  A
C4227      C4233   1.446       .  S
C4228      C4229   1.422       .  A
C4229      C4230   1.412       .  A
C4229      C4232   1.449       .  S
C4230      C4234   1.452       .  S
C4231      N4238   1.157       .  T
C4232      N4239   1.157       .  T
C4233      N4237   1.156       .  T
C4234      N4240   1.157       .  T
C4235      N4244   1.157       .  T
C4236      N4242   1.157       .  T
C4245      C4246   1.405       .  A
C4245      C4250   1.412       .  A
C4245      C4263   1.453       .  S
C4246      C4251   1.498       .  S
C4246      C4247   1.405       .  A
C4247      C4248   1.414       .  A
C4247      C4252   1.451       .  S
C4248      C4249   1.428       .  A
C4248      C4264   1.451       .  S
C4249      C4250   1.431       .  A
C4250      C4253   1.451       .  S
C4251      C4254   1.409       .  A
C4251      C4258   1.407       .  A
C4252      N4269   1.157       .  T
C4253      N4271   1.158       .  T
C4254      C4255   1.414       .  A
C4254      C4259   1.451       .  S
C4255      C4256   1.422       .  A
C4255      C4261   1.451       .  S
C4256      C4257   1.422       .  A
C4257      C4258   1.411       .  A
C4257      C4260   1.451       .  S
C4258      C4262   1.451       .  S
C4259      N4266   1.157       .  T
C4260      N4267   1.157       .  T
C4261      N4265   1.158       .  T
C4262      N4268   1.157       .  T
C4263      N4272   1.157       .  T
C4264      N4270   1.158       .  T
C4273      C4274   1.405       .  A
C4273      C4278   1.415       .  A
C4273      C4291   1.453       .  S
C4274      C4279   1.502       .  S
C4274      C4275   1.405       .  A
C4275      C4276   1.415       .  A
C4275      C4280   1.452       .  S
C4276      C4277   1.430       .  A
C4276      C4292   1.451       .  S
C4277      C4278   1.428       .  A
C4278      C4281   1.447       .  S
C4279      C4282   1.408       .  A
C4279      C4286   1.409       .  A
C4280      N4297   1.157       .  T
C4281      N4299   1.158       .  T
C4282      C4283   1.414       .  A
C4282      C4287   1.451       .  S
C4283      C4284   1.422       .  A
C4283      C4289   1.451       .  S
C4284      C4285   1.419       .  A
C4285      C4286   1.414       .  A
C4285      C4288   1.449       .  S
C4286      C4290   1.451       .  S
C4287      N4294   1.157       .  T
C4288      N4295   1.157       .  T
C4289      N4293   1.157       .  T
C4290      N4296   1.157       .  T
C4291      N4300   1.157       .  T
C4292      N4298   1.158       .  T
C4301      C4302   1.405       .  A
C4301      C4306   1.410       .  A
C4301      C4319   1.454       .  S
C4302      C4307   1.493       .  S
C4302      C4303   1.406       .  A
C4303      C4304   1.411       .  A
C4303      C4308   1.452       .  S
C4304      C4305   1.419       .  A
C4304      C4320   1.447       .  S
C4305      C4306   1.420       .  A
C4306      C4309   1.443       .  S
C4307      C4310   1.405       .  A
C4307      C4314   1.404       .  A
C4308      N4325   1.157       .  T
C4309      N4327   1.155       .  T
C4310      C4311   1.410       .  A
C4310      C4315   1.454       .  S
C4311      C4312   1.422       .  A
C4311      C4317   1.446       .  S
C4312      C4313   1.424       .  A
C4313      C4314   1.411       .  A
C4313      C4316   1.448       .  S
C4314      C4318   1.452       .  S
C4315      N4322   1.157       .  T
C4316      N4323   1.156       .  T
C4317      N4321   1.156       .  T
C4318      N4324   1.157       .  T
C4319      N4328   1.157       .  T
C4320      N4326   1.156       .  T
C4329      C4330   1.408       .  A
C4329      C4334   1.416       .  A
C4329      C4347   1.453       .  S
C4330      C4335   1.505       .  S
C4330      C4331   1.407       .  A
C4331      C4332   1.414       .  A
C4331      C4336   1.451       .  S
C4332      C4333   1.426       .  A
C4332      C4348   1.450       .  S
C4333      C4334   1.429       .  A
C4334      C4337   1.448       .  S
C4335      C4338   1.414       .  A
C4335      C4342   1.414       .  A
C4336      N4353   1.157       .  T
C4337      N4355   1.158       .  T
C4338      C4339   1.412       .  A
C4338      C4343   1.450       .  S
C4339      C4340   1.409       .  A
C4339      C4345   1.450       .  S
C4340      C4341   1.413       .  A
C4341      C4342   1.414       .  A
C4341      C4344   1.451       .  S
C4342      C4346   1.450       .  S
C4343      N4350   1.157       .  T
C4344      N4351   1.157       .  T
C4345      N4349   1.157       .  T
C4346      N4352   1.157       .  T
C4347      N4356   1.157       .  T
C4348      N4354   1.157       .  T
C4357      C4358   1.406       .  A
C4357      C4362   1.415       .  A
C4357      C4375   1.451       .  S
C4358      C4363   1.501       .  S
C4358      C4359   1.405       .  A
C4359      C4360   1.415       .  A
C4359      C4364   1.454       .  S
C4360      C4361   1.429       .  A
C4360      C4376   1.446       .  S
C4361      C4362   1.428       .  A
C4362      C4365   1.451       .  S
C4363      C4366   1.411       .  A
C4363      C4370   1.410       .  A
C4364      N4381   1.157       .  T
C4365      N4383   1.157       .  T
C4366      C4367   1.414       .  A
C4366      C4371   1.451       .  S
C4367      C4368   1.418       .  A
C4367      C4373   1.451       .  S
C4368      C4369   1.418       .  A
C4369      C4370   1.412       .  A
C4369      C4372   1.451       .  S
C4370      C4374   1.451       .  S
C4371      N4378   1.157       .  T
C4372      N4379   1.157       .  T
C4373      N4377   1.158       .  T
C4374      N4380   1.157       .  T
C4375      N4384   1.157       .  T
C4376      N4382   1.156       .  T
