geometry optimzed in LAMMPS
_audit_creation_date              2020-11-30 
_audit_creation_method            'lammps2cif' 
_symmetry_space_group_name_H-M    'P1' 
_symmetry_Int_Tables_number       1 
_symmetry_cell_setting            triclinic 
loop_ 
_symmetry_equiv_pos_as_xyz 
  x,y,z 
_cell_length_a                    46.69939735 
_cell_length_b                    46.49118235435509 
_cell_length_c                    46.59627896604718 
_cell_angle_alpha                 90.21312158801068 
_cell_angle_beta                  89.96503758372727 
_cell_angle_gamma                 90.21443270371296 
loop_ 
_atom_site_label 
_atom_site_type_symbol 
_atom_site_fract_x 
_atom_site_fract_y 
_atom_site_fract_z 
_atom_site_charge 
C1          C  0.51557468  0.66088871  0.26347009     0.86800
C2          C  0.48743888  0.64371358  0.26446988    -0.53500
C3          C  0.48662923  0.62019689  0.24695360     0.09700
C4          C  0.51422107  0.61637785  0.22900590     0.20700
C5          C  0.53925791  0.63835216  0.26917945    -0.54200
C6          C  0.53891564  0.61508270  0.25083943     0.09800
C7          C  0.51984958  0.66840878  0.23136395    -0.53700
C8          C  0.51949276  0.64492845  0.21354378     0.10400
H9          H  0.47016209  0.64897849  0.27917409     0.14900
H10         H  0.51308553  0.59822153  0.21360804     0.00600
H11         H  0.55527435  0.64126242  0.28580191     0.15200
H12         H  0.52553873  0.68955276  0.22346310     0.15000
C13         C  0.35049251  0.50920493  0.25909795     0.86800
C14         C  0.36878630  0.48186733  0.25792198    -0.53500
C15         C  0.39227049  0.48317936  0.24037785     0.09700
C16         C  0.39469155  0.51248906  0.22476655     0.20700
C17         C  0.37191193  0.53356916  0.26679346    -0.54200
C18         C  0.39510663  0.53516004  0.24881737     0.09800
C19         C  0.34267567  0.51539957  0.22742458    -0.53700
C20         C  0.36592633  0.51747221  0.20968588     0.10400
H21         H  0.36396558  0.46371392  0.27162580     0.14900
H22         H  0.41286102  0.51466249  0.20965152     0.00600
H23         H  0.36895147  0.54815842  0.28479230     0.15200
H24         H  0.32129277  0.52000866  0.21977499     0.15000
C25         C  0.50683380  0.35137625  0.25860301     0.86800
C26         C  0.53500064  0.36860688  0.25798932    -0.53500
C27         C  0.53506738  0.39133955  0.23970825     0.09700
C28         C  0.50663493  0.39496162  0.22327863     0.20700
C29         C  0.48389101  0.37451900  0.26545911    -0.54200
C30         C  0.48325879  0.39709246  0.24643980     0.09800
C31         C  0.50076886  0.34306193  0.22712703    -0.53700
C32         C  0.50036739  0.36600316  0.20884026     0.10400
H33         H  0.55271140  0.36484940  0.27252433     0.14900
H34         H  0.50700731  0.41280741  0.20758463     0.00600
H35         H  0.46897077  0.37269179  0.28320763     0.15200
H36         H  0.49515731  0.32136707  0.22041129     0.15000
C37         C  0.67072663  0.50107612  0.25738635     0.86800
C38         C  0.65251793  0.52850860  0.25821668    -0.53500
C39         C  0.62920710  0.52852275  0.24049072     0.09700
C40         C  0.62679829  0.50048119  0.22256803     0.20700
C41         C  0.64919084  0.47628547  0.26288401    -0.54200
C42         C  0.62619342  0.47610920  0.24463794     0.09800
C43         C  0.67881803  0.49715904  0.22532080    -0.53700
C44         C  0.65563202  0.49643102  0.20730139     0.10400
H45         H  0.65714489  0.54567249  0.27333471     0.14900
H46         H  0.60866578  0.49955324  0.20726971     0.00600
H47         H  0.65198576  0.46031835  0.27958630     0.15200
H48         H  0.70026169  0.49288186  0.21756702     0.15000
C49         C  0.25965711  0.50776444  0.66065317     0.86800
C50         C  0.26125150  0.47996402  0.64304990    -0.53500
C51         C  0.24399141  0.47930539  0.61956848     0.09700
C52         C  0.22576714  0.50666028  0.61603233     0.20700
C53         C  0.26533258  0.53204958  0.63873314    -0.54200
C54         C  0.24743051  0.53164090  0.61532613     0.09800
C55         C  0.22751448  0.51130928  0.66807358    -0.53700
C56         C  0.20996070  0.51097321  0.64456905     0.10400
H57         H  0.27619627  0.46283434  0.64800693     0.14900
H58         H  0.21114402  0.50552495  0.59733081     0.00600
H59         H  0.28145198  0.54857245  0.64218017     0.15200
H60         H  0.21931089  0.51609683  0.68930284     0.15000
C61         C  0.26012628  0.34345897  0.51002138     0.86800
C62         C  0.25929467  0.36083482  0.48212378    -0.53500
C63         C  0.24169131  0.38426103  0.48257321     0.09700
C64         C  0.22597361  0.38776755  0.51159234     0.20700
C65         C  0.26754207  0.36570058  0.53364920    -0.54200
C66         C  0.24968654  0.38894064  0.53428115     0.09800
C67         C  0.22846529  0.33568085  0.51634183    -0.53700
C68         C  0.21088040  0.35914282  0.51752901     0.10400
H69         H  0.27311161  0.35550935  0.46419479     0.14900
H70         H  0.21087142  0.40601544  0.51306939     0.00600
H71         H  0.28507770  0.36308095  0.54869936     0.15200
H72         H  0.22090694  0.31439390  0.52206013     0.15000
C73         C  0.26061762  0.49563581  0.34812151     0.86800
C74         C  0.26249390  0.52349323  0.36560969    -0.53500
C75         C  0.24502965  0.52455864  0.38891785     0.09700
C76         C  0.22610022  0.49743149  0.39229637     0.20700
C77         C  0.26548302  0.47137626  0.37026313    -0.54200
C78         C  0.24714274  0.47204303  0.39339305     0.09800
C79         C  0.22850012  0.49234359  0.34030264    -0.53700
C80         C  0.21059390  0.49296607  0.36358665     0.10400
H81         H  0.27792287  0.54034936  0.36078795     0.14900
H82         H  0.21080289  0.49881243  0.41040986     0.00600
H83         H  0.28174250  0.45500299  0.36742044     0.15200
H84         H  0.22060470  0.48731319  0.31899946     0.15000
C85         C  0.26401594  0.66030702  0.49894768     0.86800
C86         C  0.26399873  0.64258177  0.52673389    -0.53500
C87         C  0.24706820  0.61864304  0.52602916     0.09700
C88         C  0.23077121  0.61495125  0.49763346     0.20700
C89         C  0.27147252  0.63847087  0.47493685    -0.54200
C90         C  0.25398569  0.61474247  0.47439253     0.09800
C91         C  0.23202433  0.66716158  0.49345149    -0.53700
C92         C  0.21492175  0.64319411  0.49257275     0.10400
H93         H  0.27702176  0.64826041  0.54522697     0.14900
H94         H  0.21644182  0.59585427  0.49682640     0.00600
H95         H  0.28874453  0.64169597  0.45965709     0.15200
H96         H  0.22361973  0.68832180  0.48883401     0.15000
C97         C  0.66392026  0.25864761  0.50691173     0.86800
C98         C  0.64585888  0.26027187  0.47942209    -0.53500
C99         C  0.62214000  0.24304879  0.47909849     0.09700
C100        C  0.61905411  0.22487966  0.50670429     0.20700
C101        C  0.64234382  0.26456574  0.53157392    -0.54200
C102        C  0.61876429  0.24668220  0.53172229     0.09800
C103        C  0.67099595  0.22631939  0.51040525    -0.53700
C104        C  0.64735466  0.20891826  0.51057379     0.10400
H105        H  0.65090614  0.27521439  0.46229383     0.14900
H106        H  0.60094804  0.20948539  0.50630634     0.00600
H107        H  0.64583134  0.28125860  0.54753656     0.15200
H108        H  0.69212113  0.21783394  0.51468874     0.15000
C109        C  0.50905220  0.25906395  0.34593036     0.86800
C110        C  0.48170811  0.25728304  0.36432698    -0.53500
C111        C  0.48273441  0.23828599  0.38659901     0.09700
C112        C  0.51195732  0.22278450  0.38859019     0.20700
C113        C  0.53271990  0.26617885  0.36811139    -0.54200
C114        C  0.53448291  0.24700832  0.39027639     0.09800
C115        C  0.51544276  0.22779540  0.33671362    -0.53700
C116        C  0.51724611  0.20897004  0.35915566     0.10400
H117        H  0.46403262  0.27195278  0.36180956     0.14900
H118        H  0.51374042  0.20678795  0.40604370     0.00600
H119        H  0.54702548  0.28453516  0.36623694     0.15200
H120        H  0.51983980  0.22156607  0.31466879     0.15000
C121        C  0.34970983  0.25433846  0.49987369     0.86800
C122        C  0.36739327  0.25622673  0.52753036    -0.53500
C123        C  0.39068720  0.23876125  0.52816666     0.09700
C124        C  0.39385574  0.21996848  0.50093221     0.20700
C125        C  0.37158904  0.25948373  0.47541869    -0.54200
C126        C  0.39469182  0.24120182  0.47567313     0.09800
C127        C  0.34193863  0.22210662  0.49660547    -0.53700
C128        C  0.36516581  0.20432909  0.49689412     0.10400
H129        H  0.36264299  0.27147613  0.54459074     0.14900
H130        H  0.41196725  0.20469686  0.50193362     0.00600
H131        H  0.36855506  0.27585369  0.45917785     0.15200
H132        H  0.32069553  0.21392690  0.49193876     0.15000
C133        C  0.50179428  0.25763538  0.66233438     0.86800
C134        C  0.52927548  0.25907770  0.64414668    -0.53500
C135        C  0.52938377  0.24192027  0.62021080     0.09700
C136        C  0.50132448  0.22425510  0.61707451     0.20700
C137        C  0.47726030  0.26394754  0.64097025    -0.54200
C138        C  0.47710652  0.24648534  0.61724868     0.09800
C139        C  0.49778685  0.22530685  0.66919913    -0.53700
C140        C  0.49716642  0.20808171  0.64534705     0.10400
H141        H  0.54654085  0.27379195  0.64948655     0.14900
H142        H  0.50033118  0.20936989  0.59850281     0.00600
H143        H  0.46129736  0.28050957  0.64451924     0.15200
H144        H  0.49321357  0.21679080  0.69032052     0.15000
C145        C  0.51130312  0.75208536  0.66436360     0.86800
C146        C  0.48426673  0.75149142  0.64557792    -0.53500
C147        C  0.48467685  0.76986643  0.62292640     0.09700
C148        C  0.51273815  0.78732244  0.62076618     0.20700
C149        C  0.53573570  0.74600718  0.64256888    -0.54200
C150        C  0.53687973  0.76485596  0.61987916     0.09800
C151        C  0.51581384  0.78393779  0.67277913    -0.53700
C152        C  0.51691134  0.80216100  0.64977720     0.10400
H153        H  0.46704268  0.73609476  0.64847519     0.14900
H154        H  0.51286273  0.80317382  0.60311213     0.00600
H155        H  0.55085208  0.72856020  0.64509408     0.15200
H156        H  0.51994485  0.79099754  0.69463287     0.15000
C157        C  0.35194597  0.75168458  0.51038609     0.86800
C158        C  0.37120223  0.74928571  0.48378680    -0.53500
C159        C  0.39437185  0.76716576  0.48393104     0.09700
C160        C  0.39598374  0.78651761  0.51072409     0.20700
C161        C  0.37245082  0.74741387  0.53610601    -0.54200
C162        C  0.39562807  0.76562638  0.53613124     0.09800
C163        C  0.34392561  0.78393912  0.51239794    -0.53700
C164        C  0.36718568  0.80192505  0.51287552     0.10400
H165        H  0.36700350  0.73412577  0.46648614     0.14900
H166        H  0.41438549  0.80167535  0.51091890     0.00600
H167        H  0.36899033  0.73130263  0.55256566     0.15200
H168        H  0.32240360  0.79191958  0.51574431     0.15000
C169        C  0.50962707  0.75141762  0.35363608     0.86800
C170        C  0.53732004  0.75102437  0.37130181    -0.53500
C171        C  0.53716326  0.76864622  0.39473161     0.09700
C172        C  0.50915445  0.78572049  0.39821659     0.20700
C173        C  0.48550932  0.74500436  0.37554906    -0.54200
C174        C  0.48507614  0.76317189  0.39879180     0.09800
C175        C  0.50484196  0.78359477  0.34620052    -0.53700
C176        C  0.50434615  0.80131676  0.36982867     0.10400
H177        H  0.55504637  0.73678804  0.36633298     0.14900
H178        H  0.50940775  0.80050654  0.41695338     0.00600
H179        H  0.46933677  0.72854031  0.37201245     0.15200
H180        H  0.49960754  0.79140037  0.32495637     0.15000
C181        C  0.66998325  0.75344074  0.50715228     0.86800
C182        C  0.65087501  0.75235991  0.53393235    -0.53500
C183        C  0.62781324  0.77036455  0.53362693     0.09700
C184        C  0.62630232  0.78839881  0.50578944     0.20700
C185        C  0.64931726  0.74816455  0.48173104    -0.54200
C186        C  0.62638307  0.76639323  0.48115770     0.09800
C187        C  0.67836195  0.78565081  0.50401068    -0.53700
C188        C  0.65524115  0.80374287  0.50292372     0.10400
H189        H  0.65496214  0.73716463  0.55101487     0.14900
H190        H  0.60834377  0.80380665  0.50448431     0.00600
H191        H  0.65251876  0.73142802  0.46574244     0.15200
H192        H  0.70001724  0.79343321  0.50076717     0.15000
C193        C  0.66397531  0.50676226  0.75549951     0.86800
C194        C  0.64585136  0.47915278  0.75576965    -0.53500
C195        C  0.62249947  0.47972864  0.77350068     0.09700
C196        C  0.61978977  0.50854607  0.79001613     0.20700
C197        C  0.64249171  0.53098379  0.74874263    -0.54200
C198        C  0.61937771  0.53168161  0.76671417     0.09800
C199        C  0.67179986  0.51225368  0.78748657    -0.53700
C200        C  0.64846262  0.51346808  0.80536747     0.10400
H201        H  0.65060061  0.46134150  0.74148182     0.14900
H202        H  0.60144686  0.51010785  0.80502762     0.00600
H203        H  0.64540012  0.54632282  0.73145293     0.15200
H204        H  0.69324990  0.51667606  0.79522197     0.15000
C205        C  0.50489625  0.65987696  0.75155010     0.86800
C206        C  0.53188125  0.64094823  0.75100645    -0.53500
C207        C  0.53077369  0.61777950  0.76862167     0.09700
C208        C  0.50266086  0.61529442  0.78556355     0.20700
C209        C  0.48030975  0.63828091  0.74451983    -0.54200
C210        C  0.47893532  0.61497762  0.76267527     0.09800
C211        C  0.50001731  0.66750350  0.78345385    -0.53700
C212        C  0.49856411  0.64404869  0.80107475     0.10400
H213        H  0.54968932  0.64398362  0.73637758     0.14900
H214        H  0.50243994  0.59708212  0.80080751     0.00600
H215        H  0.46536091  0.64133736  0.72699344     0.15200
H216        H  0.49635760  0.68929591  0.79104170     0.15000
C217        C  0.34819135  0.49862092  0.75105590     0.86800
C218        C  0.36691863  0.52577560  0.74937590    -0.53500
C219        C  0.39017236  0.52608433  0.76709524     0.09700
C220        C  0.39223235  0.49850619  0.78556982     0.20700
C221        C  0.36907697  0.47335941  0.74597245    -0.54200
C222        C  0.39212927  0.47327504  0.76412847     0.09800
C223        C  0.34023277  0.49589270  0.78326048    -0.53700
C224        C  0.36349474  0.49550271  0.80110002     0.10400
H225        H  0.36245779  0.54271780  0.73410546     0.14900
H226        H  0.41030891  0.49792736  0.80092241     0.00600
H227        H  0.36571445  0.45694605  0.72966753     0.15200
H228        H  0.31878532  0.49237248  0.79138957     0.15000
C229        C  0.50929754  0.34596924  0.75440198     0.86800
C230        C  0.48127727  0.36301381  0.75389253    -0.53500
C231        C  0.48069863  0.38625626  0.77170780     0.09700
C232        C  0.50850976  0.39009856  0.78929845     0.20700
C233        C  0.53309863  0.36857946  0.74872782    -0.54200
C234        C  0.53299461  0.39164378  0.76726661     0.09800
C235        C  0.51391574  0.33807607  0.78638873    -0.53700
C236        C  0.51381633  0.36148227  0.80441666     0.10400
H237        H  0.46393039  0.35792007  0.73918724     0.14900
H238        H  0.50778452  0.40820887  0.80480157     0.00600
H239        H  0.54902746  0.36592818  0.73197166     0.15200
H240        H  0.51978434  0.31684497  0.79385038     0.15000
C241        C  0.75655303  0.66076356  0.51787381     0.86800
C242        C  0.75608286  0.64408527  0.48938308    -0.53500
C243        C  0.77307440  0.62031838  0.48856435     0.09700
C244        C  0.79010069  0.61576421  0.51661818     0.20700
C245        C  0.74961331  0.63788737  0.54099421    -0.54200
C246        C  0.76732143  0.61433494  0.54037255     0.09800
C247        C  0.78856183  0.66774260  0.52331121    -0.53700
C248        C  0.80591077  0.64409402  0.52304639     0.10400
H249        H  0.74263447  0.65036755  0.47147610     0.14900
H250        H  0.80462235  0.59693121  0.51620637     0.00600
H251        H  0.73266778  0.64047539  0.55674380     0.15200
H252        H  0.79670567  0.68870873  0.52949541     0.15000
C253        C  0.75842049  0.51247527  0.34928139     0.86800
C254        C  0.75733710  0.48430740  0.36615927    -0.53500
C255        C  0.77456925  0.48351036  0.38968945     0.09700
C256        C  0.79235573  0.51125536  0.39395215     0.20700
C257        C  0.75230741  0.53621903  0.37198503    -0.54200
C258        C  0.77037800  0.53585975  0.39536348     0.09800
C259        C  0.79051630  0.51703969  0.34206233    -0.53700
C260        C  0.80807417  0.51667079  0.36557430     0.10400
H261        H  0.74344822  0.46651012  0.36007459     0.14900
H262        H  0.80680147  0.51012804  0.41275756     0.00600
H263        H  0.73598351  0.55247818  0.36899408     0.15200
H264        H  0.79861126  0.52244355  0.32095263     0.15000
C265        C  0.75598370  0.34679369  0.49835457     0.86800
C266        C  0.75428858  0.36471680  0.52588985    -0.53500
C267        C  0.77198970  0.38794569  0.52664203     0.09700
C268        C  0.79093353  0.39092900  0.49967676     0.20700
C269        C  0.75133057  0.36871656  0.47385094    -0.54200
C270        C  0.76987845  0.39178081  0.47432861     0.09800
C271        C  0.78806843  0.33875238  0.49526601    -0.53700
C272        C  0.80618515  0.36205916  0.49551161     0.10400
H273        H  0.73946675  0.35980912  0.54319974     0.14900
H274        H  0.80571224  0.40963021  0.50088831     0.00600
H275        H  0.73548926  0.36548525  0.45710774     0.15200
H276        H  0.79568763  0.31736110  0.49009922     0.15000
C277        C  0.75326872  0.49459912  0.66515854     0.86800
C278        C  0.75426909  0.52313559  0.64874980    -0.53500
C279        C  0.77244301  0.52353677  0.62581094     0.09700
C280        C  0.78909491  0.49517828  0.62196019     0.20700
C281        C  0.74691553  0.47161427  0.64167195    -0.54200
C282        C  0.76610238  0.47172757  0.61921424     0.09800
C283        C  0.78477967  0.48847000  0.67351572    -0.53700
C284        C  0.80325275  0.48852460  0.65075575     0.10400
H285        H  0.73999784  0.54082320  0.65382499     0.14900
H286        H  0.80464913  0.49575123  0.60397000     0.00600
H287        H  0.72970686  0.45595989  0.64343185     0.15200
H288        H  0.79173542  0.48185559  0.69465029     0.15000
C289        C  0.76221157  0.99301419  0.85161033     0.86800
C290        C  0.76437438  0.01977976  0.87070161    -0.53500
C291        C  0.74676833  0.01961392  0.89390312     0.09700
C292        C  0.72752781  0.99275204  0.89568885     0.20700
C293        C  0.76679253  0.96747988  0.87237941    -0.54200
C294        C  0.74829123  0.96720608  0.89539098     0.09800
C295        C  0.73002550  0.99067105  0.84360026    -0.53700
C296        C  0.71209514  0.99026276  0.86683775     0.10400
H297        H  0.77924619  0.03728794  0.86643979     0.14900
H298        H  0.71285571  0.99320082  0.91440441     0.00600
H299        H  0.78260694  0.95083592  0.86861512     0.15200
H300        H  0.72194898  0.98709302  0.82210019     0.15000
C301        C  0.76384390  0.15553829  0.00238140     0.86800
C302        C  0.76460980  0.13922135  0.03086388    -0.53500
C303        C  0.74704778  0.11589302  0.03195469     0.09700
C304        C  0.72932927  0.11116285  0.00454211     0.20700
C305        C  0.76977165  0.13237384  0.97927620    -0.54200
C306        C  0.75142857  0.10927126  0.98024661     0.09800
C307        C  0.73173833  0.16297093  0.99774992    -0.53700
C308        C  0.71391855  0.13946237  0.99863959     0.10400
H309        H  0.77878189  0.14509710  0.04844018     0.14900
H310        H  0.71479023  0.09226280  0.00582992     0.00600
H311        H  0.78617031  0.13477873  0.96292593     0.15200
H312        H  0.72382626  0.18401223  0.99188516     0.15000
C313        C  0.76172824  0.00531019  0.16599877     0.86800
C314        C  0.76178097  0.97750735  0.14834748    -0.53500
C315        C  0.74443198  0.97775414  0.12493223     0.09700
C316        C  0.72751970  0.00591793  0.12161115     0.20700
C317        C  0.76848683  0.02933279  0.14408539    -0.54200
C318        C  0.75024484  0.02983914  0.12102934     0.09800
C319        C  0.72977691  0.01051708  0.17361789    -0.53700
C320        C  0.71209659  0.01111077  0.15012766     0.10400
H321        H  0.77524487  0.95927650  0.15365618     0.14900
H322        H  0.71307787  0.00590569  0.10270016     0.00600
H323        H  0.78523602  0.04526934  0.14735412     0.15200
H324        H  0.72205575  0.01600926  0.19486704     0.15000
C325        C  0.75947546  0.84190420  0.01502311     0.86800
C326        C  0.76033356  0.85892394  0.98706792    -0.53500
C327        C  0.74290678  0.88222851  0.98635505     0.09700
C328        C  0.72492032  0.88605213  0.01393125     0.20700
C329        C  0.76515735  0.86446094  0.03885343    -0.54200
C330        C  0.74682610  0.88751700  0.03849827     0.09800
C331        C  0.72745045  0.83400671  0.01941187    -0.53700
C332        C  0.70952294  0.85736026  0.01929323     0.10400
H333        H  0.77439977  0.85321196  0.96937663     0.14900
H334        H  0.71031425  0.90477412  0.01299074     0.00600
H335        H  0.78139130  0.86156591  0.05523373     0.15200
H336        H  0.71990452  0.81276116  0.02532332     0.15000
C337        C  0.85038469  0.75421572  0.00034657     0.86800
C338        C  0.86887083  0.75383878  0.02757425    -0.53500
C339        C  0.89246637  0.73646214  0.02647994     0.09700
C340        C  0.89486370  0.72033547  0.99738903     0.20700
C341        C  0.87162019  0.76177347  0.97591491    -0.54200
C342        C  0.89499877  0.74403076  0.97448055     0.09800
C343        C  0.84284806  0.72225499  0.99454014    -0.53700
C344        C  0.86623980  0.70475811  0.99265247     0.10400
H345        H  0.86386047  0.76772446  0.04557644     0.14900
H346        H  0.91303917  0.70528184  0.99534451     0.00600
H347        H  0.86840106  0.77951768  0.96119503     0.15200
H348        H  0.82150889  0.71420856  0.99009539     0.15000
C349        C  0.00647551  0.75335841  0.16001848     0.86800
C350        C  0.03403200  0.75467191  0.14230860    -0.53500
C351        C  0.03449014  0.73708201  0.11889057     0.09700
C352        C  0.00699319  0.71862717  0.11570512     0.20700
C353        C  0.98222789  0.75878157  0.13800378    -0.54200
C354        C  0.98214408  0.74035311  0.11474763     0.09800
C355        C  0.00256787  0.72121780  0.16774107    -0.53700
C356        C  0.00248557  0.70319725  0.14446474     0.10400
H357        H  0.05107564  0.76991832  0.14703996     0.14900
H358        H  0.00792083  0.70314226  0.09764058     0.00600
H359        H  0.96646142  0.77557296  0.14107292     0.15200
H360        H  0.99734463  0.71344527  0.18901060     0.15000
C361        C  0.16824809  0.76051343  0.00803972     0.86800
C362        C  0.15099132  0.75889417  0.98007851    -0.53500
C363        C  0.12789483  0.74072739  0.98045687     0.09700
C364        C  0.12492033  0.72480245  0.00944814     0.20700
C365        C  0.14578904  0.76745095  0.03154935    -0.54200
C366        C  0.12311817  0.74858623  0.03221990     0.09800
C367        C  0.17666200  0.72896081  0.01442761    -0.53700
C368        C  0.15379262  0.71055358  0.01544377     0.10400
H369        H  0.15618782  0.77277633  0.96219731     0.14900
H370        H  0.10722182  0.70899481  0.01091312     0.00600
H371        H  0.14800319  0.78520190  0.04660691     0.15200
H372        H  0.19802641  0.72181533  0.01980924     0.15000
C373        C  0.01381304  0.75947401  0.84820198     0.86800
C374        C  0.98614204  0.76041945  0.86582147    -0.53500
C375        C  0.98559297  0.74245001  0.88881745     0.09700
C376        C  0.01313605  0.72431551  0.89175988     0.20700
C377        C  0.03799061  0.76486653  0.87030795    -0.54200
C378        C  0.03800956  0.74616290  0.89313891     0.09800
C379        C  0.01780114  0.72745812  0.83988043    -0.53700
C380        C  0.01776419  0.70927462  0.86285802     0.10400
H381        H  0.96900121  0.77541673  0.86117378     0.14900
H382        H  0.01218569  0.70851124  0.90941227     0.00600
H383        H  0.05387835  0.78168283  0.86748619     0.15200
H384        H  0.02349780  0.71996562  0.81858842     0.15000
C385        C  0.00530891  0.84941749  0.75902224     0.86800
C386        C  0.03314447  0.86698382  0.75956449    -0.53500
C387        C  0.03339945  0.89032225  0.74200969     0.09700
C388        C  0.00545867  0.89363555  0.72458141     0.20700
C389        C  0.98140112  0.87153736  0.76521462    -0.54200
C390        C  0.98112462  0.89466603  0.74691797     0.09800
C391        C  0.00066415  0.84154865  0.72701466    -0.53700
C392        C  0.00051895  0.86486997  0.70923605     0.10400
H393        H  0.05067873  0.86203905  0.77400585     0.14900
H394        H  0.00598372  0.91168506  0.70916326     0.00600
H395        H  0.96584076  0.86858309  0.78226029     0.15200
H396        H  0.99556183  0.82022613  0.71905873     0.15000
C397        C  0.16906663  0.00147125  0.75694585     0.86800
C398        C  0.15074925  0.02879623  0.75591164    -0.53500
C399        C  0.12776637  0.02772614  0.73772084     0.09700
C400        C  0.12550196  0.99856790  0.72171710     0.20700
C401        C  0.14748131  0.97702832  0.76380969    -0.54200
C402        C  0.12460535  0.97565637  0.74537482     0.09800
C403        C  0.17743648  0.99555242  0.72525317    -0.53700
C404        C  0.15449179  0.99373258  0.70705644     0.10400
H405        H  0.15523356  0.04689364  0.76995065     0.14900
H406        H  0.10759286  0.99667862  0.70624755     0.00600
H407        H  0.15010998  0.96221795  0.78156722     0.15200
H408        H  0.19899011  0.99115707  0.71789182     0.15000
C409        C  0.01456297  0.16038675  0.75751231     0.86800
C410        C  0.98676454  0.14299094  0.75893802    -0.53500
C411        C  0.98575354  0.11974769  0.74124075     0.09700
C412        C  0.01287447  0.11631764  0.72255367     0.20700
C413        C  0.03866624  0.13811230  0.76232141    -0.54200
C414        C  0.03816217  0.11510542  0.74365023     0.09800
C415        C  0.01800914  0.16844138  0.72544265    -0.53700
C416        C  0.01748896  0.14510592  0.70737039     0.10400
H417        H  0.96990078  0.14781151  0.77427250     0.14900
H418        H  0.01152922  0.09824635  0.70705136     0.00600
H419        H  0.05501616  0.14097425  0.77862056     0.15200
H420        H  0.02357882  0.18973370  0.71782117     0.15000
C421        C  0.85118495  0.00938154  0.76248733     0.86800
C422        C  0.86862907  0.98156924  0.76092151    -0.53500
C423        C  0.89170228  0.98226945  0.74289428     0.09700
C424        C  0.89462117  0.01147404  0.72722327     0.20700
C425        C  0.87339364  0.03313307  0.76979199    -0.54200
C426        C  0.89617516  0.03406235  0.75123063     0.09800
C427        C  0.84288010  0.01601454  0.73103585    -0.53700
C428        C  0.86577857  0.01748791  0.71282341     0.10400
H429        H  0.86366400  0.96355408  0.77476385     0.14900
H430        H  0.91242924  0.01314232  0.71162736     0.00600
H431        H  0.87104221  0.04803844  0.78762490     0.15200
H432        H  0.82157973  0.02188501  0.72403541     0.15000
C433        C  0.25657828  0.85148862  0.99464626     0.86800
C434        C  0.25391021  0.86947809  0.02206065    -0.53500
C435        C  0.27149309  0.89278679  0.02320921     0.09700
C436        C  0.29097441  0.89597044  0.99675921     0.20700
C437        C  0.25219730  0.87333939  0.96998013    -0.54200
C438        C  0.27046420  0.89665910  0.97100237     0.09800
C439        C  0.28882468  0.84387117  0.99241992    -0.53700
C440        C  0.30660998  0.86732126  0.99331159     0.10400
H441        H  0.23888777  0.86429000  0.03911066     0.14900
H442        H  0.30553955  0.91480928  0.99819643     0.00600
H443        H  0.23662998  0.87010854  0.95297863     0.15200
H444        H  0.29696610  0.82254044  0.98786500     0.15000
C445        C  0.25817553  0.01775113  0.84693017     0.86800
C446        C  0.25757855  0.98978428  0.86410218    -0.53500
C447        C  0.27495192  0.98941843  0.88751079     0.09700
C448        C  0.29265917  0.01725587  0.89121958     0.20700
C449        C  0.25214527  0.04165000  0.86941496    -0.54200
C450        C  0.27055834  0.04162254  0.89247432     0.09800
C451        C  0.29023865  0.02253530  0.83930185    -0.53700
C452        C  0.30809456  0.02260618  0.86269401     0.10400
H453        H  0.24372122  0.97183559  0.85840672     0.14900
H454        H  0.30723179  0.01660585  0.90998345     0.00600
H455        H  0.23570136  0.05781652  0.86652043     0.15200
H456        H  0.29795091  0.02823852  0.81812832     0.15000
C457        C  0.25621173  0.00153235  0.15960040     0.86800
C458        C  0.25519945  0.02948785  0.14232356    -0.53500
C459        C  0.27238414  0.02983794  0.11871774     0.09700
C460        C  0.29001950  0.00215534  0.11485475     0.20700
C461        C  0.24985691  0.97755099  0.13735150    -0.54200
C462        C  0.26783565  0.97775832  0.11405875     0.09800
C463        C  0.28836482  0.99711263  0.16675722    -0.53700
C464        C  0.30584335  0.99707808  0.14312295     0.10400
H465        H  0.24129266  0.04730514  0.14800318     0.14900
H466        H  0.30430678  0.00270055  0.09582925     0.00600
H467        H  0.23346214  0.96123896  0.14046973     0.15200
H468        H  0.29646059  0.99154139  0.18778692     0.15000
C469        C  0.25824285  0.16792329  0.01197552     0.86800
C470        C  0.25773550  0.15105723  0.98372654    -0.53500
C471        C  0.27519203  0.12775664  0.98300824     0.09700
C472        C  0.29275886  0.12379455  0.01068162     0.20700
C473        C  0.25209447  0.14508796  0.03535995    -0.54200
C474        C  0.27039862  0.12198728  0.03482129     0.09800
C475        C  0.29017248  0.17575071  0.01695856    -0.53700
C476        C  0.30806545  0.15243442  0.01664345     0.10400
H477        H  0.24371184  0.15661068  0.96600467     0.14900
H478        H  0.30741122  0.10512693  0.00951336     0.00600
H479        H  0.23544895  0.14767677  0.05141821     0.15200
H480        H  0.29773858  0.19696764  0.02308346     0.15000
C481        C  0.00496231  0.24805978  0.84967924     0.86800
C482        C  0.03250992  0.24739838  0.86765857    -0.53500
C483        C  0.03226632  0.26475154  0.89131986     0.09700
C484        C  0.00422523  0.28174746  0.89473535     0.20700
C485        C  0.98062193  0.24129471  0.87127034    -0.54200
C486        C  0.98033833  0.25901744  0.89487942     0.09800
C487        C  0.00027690  0.28028868  0.84266959    -0.53700
C488        C  0.99957399  0.29763915  0.86645798     0.10400
H489        H  0.05068061  0.23399422  0.86202856     0.14900
H490        H  0.00369477  0.29632229  0.91364022     0.00600
H491        H  0.96487722  0.22437230  0.86791099     0.15200
H492        H  0.99534774  0.28854667  0.82154261     0.15000
C493        C  0.85334648  0.24578964  0.01174366     0.86800
C494        C  0.87095855  0.24595887  0.98404953    -0.53500
C495        C  0.89361059  0.26447499  0.98408317     0.09700
C496        C  0.89623894  0.28203998  0.01223207     0.20700
C497        C  0.87555971  0.24033630  0.03589027    -0.54200
C498        C  0.89808179  0.25957603  0.03642166     0.09800
C499        C  0.84453105  0.27746121  0.01678691    -0.53700
C500        C  0.86708902  0.29623994  0.01735456     0.10400
H501        H  0.86667508  0.23116814  0.96645484     0.14900
H502        H  0.91363105  0.29825828  0.01178571     0.00600
H503        H  0.87316315  0.22310245  0.05134420     0.15200
H504        H  0.82309389  0.28424791  0.02253688     0.15000
C505        C  0.01641020  0.24641948  0.16407352     0.86800
C506        C  0.98799429  0.24759473  0.14763700    -0.53500
C507        C  0.98759833  0.26564906  0.12453208     0.09700
C508        C  0.01644574  0.28187110  0.12064325     0.20700
C509        C  0.03914705  0.23956400  0.14080125    -0.54200
C510        C  0.03912444  0.25824954  0.11803124     0.09800
C511        C  0.02318139  0.27810089  0.17228374    -0.53700
C512        C  0.02362811  0.29642176  0.14933455     0.10400
H513        H  0.97039814  0.23343629  0.15322448     0.14900
H514        H  0.01723553  0.29764188  0.10295008     0.00600
H515        H  0.05430692  0.22202072  0.14262290     0.15200
H516        H  0.03000327  0.28506936  0.19342645     0.15000
C517        C  0.16798592  0.25643504  0.00170399     0.86800
C518        C  0.14962545  0.25383103  0.02879207    -0.53500
C519        C  0.12568307  0.27043221  0.02916794     0.09700
C520        C  0.12263872  0.28926654  0.00206809     0.20700
C521        C  0.14697086  0.25067706  0.97667420    -0.54200
C522        C  0.12317001  0.26796566  0.97670654     0.09800
C523        C  0.17478745  0.28895735  0.99913920    -0.53700
C524        C  0.15090454  0.30597721  0.99896731     0.10400
H525        H  0.15452291  0.23844705  0.04553882     0.14900
H526        H  0.10368827  0.30351585  0.00273807     0.00600
H527        H  0.15114961  0.23476996  0.96010810     0.15200
H528        H  0.19597213  0.29782199  0.99556637     0.15000
C529        C  0.85106317  0.99178182  0.25503912     0.86800
C530        C  0.86919873  0.01933333  0.25424935    -0.53500
C531        C  0.89270786  0.01958533  0.27172630     0.09700
C532        C  0.89534529  0.99140563  0.28928062     0.20700
C533        C  0.87254057  0.96721395  0.24888873    -0.54200
C534        C  0.89580890  0.96711907  0.26682273     0.09800
C535        C  0.84333846  0.98763760  0.28704366    -0.53700
C536        C  0.86664362  0.98704817  0.30475788     0.10400
H537        H  0.86405183  0.03649017  0.23950142     0.14900
H538        H  0.91349501  0.99048218  0.30449504     0.00600
H539        H  0.86956828  0.95143369  0.23190542     0.15200
H540        H  0.82200652  0.98305006  0.29499367     0.15000
C541        C  0.00391107  0.15614882  0.25357802     0.86800
C542        C  0.03216846  0.13956964  0.25423183    -0.53500
C543        C  0.03244070  0.11655353  0.27216834     0.09700
C544        C  0.00415720  0.11251915  0.28889540     0.20700
C545        C  0.98081414  0.13290089  0.24709705    -0.54200
C546        C  0.98063479  0.11000144  0.26585089     0.09800
C547        C  0.99785741  0.16433885  0.28530721    -0.53700
C548        C  0.99772000  0.14134140  0.30359415     0.10400
H549        H  0.04995144  0.14464377  0.24005599     0.14900
H550        H  0.00498683  0.09478288  0.30463701     0.00600
H551        H  0.96575267  0.13495369  0.22952581     0.15200
H552        H  0.99156930  0.18560235  0.29246372     0.15000
C553        C  0.16781706  0.00807287  0.25078669     0.86800
C554        C  0.14996372  0.98025262  0.24939398    -0.53500
C555        C  0.12693691  0.97936350  0.26751838     0.09700
C556        C  0.12417190  0.00703483  0.28590130     0.20700
C557        C  0.14596827  0.03254311  0.24598161    -0.54200
C558        C  0.12307522  0.03187228  0.26434675     0.09800
C559        C  0.17605654  0.01142241  0.28282221    -0.53700
C560        C  0.15303203  0.01119431  0.30095363     0.10400
H561        H  0.15478555  0.96331447  0.23409358     0.14900
H562        H  0.10622691  0.00732110  0.30144890     0.00600
H563        H  0.14854625  0.04900673  0.22970418     0.15200
H564        H  0.19746301  0.01593231  0.29060631     0.15000
C565        C  0.01611661  0.84280216  0.25104352     0.86800
C566        C  0.98811690  0.85992832  0.25126799    -0.53500
C567        C  0.98787554  0.88310997  0.26921806     0.09700
C568        C  0.01611367  0.88674316  0.28626956     0.20700
C569        C  0.03976133  0.86542466  0.24489341    -0.54200
C570        C  0.04004962  0.88843506  0.26352473     0.09800
C571        C  0.02137874  0.83474750  0.28288278    -0.53700
C572        C  0.02174451  0.85791636  0.30112100     0.10400
H573        H  0.97042056  0.85483303  0.23699250     0.14900
H574        H  0.01570265  0.90471209  0.30193095     0.00600
H575        H  0.05511928  0.86296942  0.22758097     0.15200
H576        H  0.02704197  0.81344888  0.29025215     0.15000
In577      In  0.65343290  0.06976254  0.55212877     1.36900
C578        C  0.62014127  0.04086918  0.51690457     0.77900
O579        O  0.69594120  0.05325860  0.53794764    -0.60600
O580        O  0.69484522  0.08113424  0.57423127    -0.51500
C581        C  0.64760757  0.12465075  0.53673152     0.70500
O582        O  0.65494902  0.10505177  0.51961802    -0.46300
C583        C  0.63760784  0.03547421  0.59482117     0.75200
O584        O  0.61019401  0.05279051  0.53912307    -0.58200
O585        O  0.65335952  0.02736616  0.57439982    -0.48300
O586        O  0.64590871  0.04675678  0.51108182    -0.54600
C587        C  0.70981554  0.06618966  0.55729608     0.85400
O588        O  0.64169374  0.11621673  0.56185745    -0.56500
O589        O  0.63148775  0.06206286  0.59472649    -0.59800
In590      In  0.84464478  0.06694773  0.57851351     1.36900
C591        C  0.85430777  0.01968165  0.55013985     0.77900
O592        O  0.80020135  0.05397760  0.56740987    -0.60600
O593        O  0.80560477  0.09388726  0.58901067    -0.51500
C594        C  0.85943217  0.05300437  0.63240180     0.70500
O595        O  0.87029114  0.04126221  0.61068686    -0.46300
C596        C  0.86815547  0.10483023  0.54171779     0.75200
O597        O  0.87266896  0.03967844  0.55122409    -0.58200
O598        O  0.87530681  0.10397129  0.56792898    -0.48300
O599        O  0.83245665  0.02284563  0.56574466    -0.54600
C600        C  0.78849478  0.07600010  0.57779076     0.85400
O601        O  0.84365084  0.07417429  0.62685007    -0.56500
O602        O  0.84800835  0.08807747  0.53531611    -0.59800
In603      In  0.84977322  0.94139436  0.44160308     1.36900
C604        C  0.86251166  0.97911109  0.48141873     0.77900
O605        O  0.80604952  0.95725572  0.45172808    -0.60600
O606        O  0.80946328  0.91739792  0.42949966    -0.51500
C607        C  0.86069826  0.95830267  0.38782470     0.70500
O608        O  0.85045512  0.97450912  0.40678735    -0.46300
C609        C  0.87555643  0.90104515  0.47246378     0.75200
O610        O  0.87692446  0.97765676  0.45849147    -0.58200
O611        O  0.85188000  0.89639881  0.46028105    -0.48300
O612        O  0.84121696  0.96239750  0.48284637    -0.54600
C613        C  0.79326547  0.93609870  0.44057347     0.85400
O614        O  0.86679996  0.93328485  0.39639315    -0.56500
O615        O  0.88797501  0.92378401  0.46472198    -0.59800
In616      In  0.65822789  0.94419329  0.46285800     1.36900
C617        C  0.62288100  0.97032376  0.49793661     0.77900
O618        O  0.70025837  0.96236994  0.47688721    -0.60600
O619        O  0.69982487  0.93332942  0.44141905    -0.51500
C620        C  0.65499263  0.88874386  0.47806361     0.70500
O621        O  0.66225078  0.90857683  0.49504973    -0.46300
C622        C  0.64280113  0.97945774  0.42052189     0.75200
O623        O  0.61389582  0.95761545  0.47569305    -0.58200
O624        O  0.65756461  0.98742147  0.44175377    -0.48300
O625        O  0.64899823  0.96657642  0.50384008    -0.54600
C626        C  0.71446113  0.94897242  0.45812176     0.85400
O627        O  0.64781539  0.89718746  0.45325598    -0.56500
O628        O  0.63736822  0.95265890  0.41972989    -0.59800
In629      In  0.57598839  0.94475120  0.84643293     1.36900
C630        C  0.53991409  0.98730312  0.85272164     0.77900
O631        O  0.58585026  0.95093594  0.80004398    -0.60600
O632        O  0.57848317  0.90833263  0.81445755    -0.51500
C633        C  0.62876325  0.96266991  0.86002973     0.70500
O634        O  0.60924718  0.97931625  0.85200150    -0.46300
C635        C  0.54103473  0.90926442  0.87486351     0.75200
O636        O  0.55476730  0.97828558  0.87343876    -0.58200
O637        O  0.53387405  0.92237085  0.85243879    -0.48300
O638        O  0.54505469  0.97578365  0.82869494    -0.54600
C639        C  0.58356353  0.92473670  0.79363972     0.85400
O640        O  0.62104073  0.93676135  0.86313200    -0.56500
O641        O  0.56682742  0.91328025  0.88246954    -0.59800
In642      In  0.57168297  0.93616528  0.66103374     1.36900
C643        C  0.53203271  0.97589418  0.65663784     0.77900
O644        O  0.56455512  0.92661076  0.70712654    -0.60600
O645        O  0.60741844  0.93346770  0.69343445    -0.51500
C646        C  0.55046704  0.88387313  0.65068875     0.70500
O647        O  0.53501243  0.90560343  0.65466350    -0.46300
C648        C  0.60812302  0.96683694  0.62947427     0.75200
O649        O  0.53919253  0.96033125  0.63561241    -0.58200
O650        O  0.59981584  0.97431509  0.65406282    -0.48300
O651        O  0.54410296  0.97003237  0.68009561    -0.54600
C652        C  0.59051294  0.92877247  0.71398848     0.85400
O653        O  0.57703455  0.88909203  0.64906933    -0.56500
O654        O  0.59966909  0.94208366  0.62157862    -0.59800
In655      In  0.44164881  0.07649924  0.66682920     1.36900
C656        C  0.48264536  0.03843225  0.67312629     0.77900
O657        O  0.44496653  0.09537927  0.71057045    -0.60600
O658        O  0.40431816  0.07965302  0.69750362    -0.51500
C659        C  0.46354309  0.12666231  0.64993930     0.70500
O660        O  0.47864568  0.10474352  0.65412656    -0.46300
C661        C  0.40757186  0.04326314  0.63426850     0.75200
O662        O  0.47677331  0.04956711  0.64916348    -0.58200
O663        O  0.41319428  0.06911564  0.62780515    -0.48300
O664        O  0.46849670  0.04789331  0.69416358    -0.54600
C665        C  0.41924927  0.09084042  0.71711652     0.85400
O666        O  0.43685235  0.12235375  0.65134562    -0.56500
O667        O  0.41816567  0.03526665  0.65769949    -0.59800
In668      In  0.44043531  0.07849514  0.84483617     1.36900
C669        C  0.47729354  0.03667377  0.83847511     0.77900
O670        O  0.42658632  0.07423457  0.79982053    -0.60600
O671        O  0.43495946  0.11654537  0.81521136    -0.51500
C672        C  0.38914174  0.05769224  0.86009700     0.70500
O673        O  0.41119542  0.04235040  0.85841358    -0.46300
C674        C  0.47667531  0.11106485  0.87574512     0.75200
O675        O  0.46734809  0.04359742  0.86275914    -0.58200
O676        O  0.45139080  0.10569290  0.88415683    -0.48300
O677        O  0.46693061  0.04989584  0.81735832    -0.54600
C678        C  0.42777124  0.10067432  0.79437719     0.85400
O679        O  0.39375307  0.08435055  0.85752093    -0.56500
O680        O  0.48236208  0.10153912  0.85112903    -0.59800
In681      In  0.58006019  0.06821248  0.16407038     1.36900
C682        C  0.54111084  0.02883959  0.15436642     0.77900
O683        O  0.58186934  0.05783530  0.21009207    -0.60600
O684        O  0.59335978  0.10042559  0.19855870    -0.51500
C685        C  0.63149670  0.04617980  0.15202322     0.70500
O686        O  0.61013507  0.03108219  0.15855981    -0.46300
C687        C  0.54589274  0.10663278  0.13888243     0.75200
O688        O  0.55690724  0.03789263  0.13423316    -0.58200
O689        O  0.54009172  0.09479754  0.16240625    -0.48300
O690        O  0.54707023  0.03839560  0.17904398    -0.54600
C691        C  0.59014967  0.08225669  0.21839143     0.85400
O692        O  0.62626106  0.07266814  0.14891925    -0.56500
O693        O  0.57060852  0.10088258  0.12918323    -0.59800
In694      In  0.57314079  0.07424550  0.35336189     1.36900
C695        C  0.53135825  0.03762168  0.36317556     0.77900
O696        O  0.57584730  0.05076363  0.31234249    -0.60600
O697        O  0.59462978  0.09246240  0.31338047    -0.51500
C698        C  0.55112228  0.12738567  0.35699421     0.70500
O699        O  0.53598161  0.10512897  0.35400925    -0.46300
C700        C  0.61234621  0.04778507  0.38591604     0.75200
O701        O  0.54366410  0.05065063  0.38355233    -0.58200
O702        O  0.60922531  0.04288347  0.35959591    -0.48300
O703        O  0.53863824  0.04556831  0.33840917    -0.54600
C704        C  0.58828138  0.07040389  0.29872200     0.85400
O705        O  0.57764816  0.12263277  0.35958029    -0.56500
O706        O  0.59827983  0.06911991  0.39499542    -0.59800
In707      In  0.43616208  0.94335607  0.16832538     1.36900
C708        C  0.47478662  0.98432759  0.16956032     0.77900
O709        O  0.41815854  0.95570618  0.21079110    -0.60600
O710        O  0.42972440  0.91197218  0.20488117    -0.51500
C711        C  0.38625919  0.96209517  0.14816166     0.70500
O712        O  0.40855265  0.97738274  0.14838292    -0.46300
C713        C  0.47123491  0.90533908  0.14291340     0.75200
O714        O  0.46478236  0.97494343  0.14612864    -0.58200
O715        O  0.47727313  0.91842798  0.16578070    -0.48300
O716        O  0.46359554  0.97415691  0.19194129    -0.54600
C717        C  0.42001073  0.93109171  0.22156883     0.85400
O718        O  0.39017224  0.93600404  0.15452024    -0.56500
O719        O  0.44602447  0.90977893  0.13391993    -0.59800
In720      In  0.44614795  0.93125222  0.35107883     1.36900
C721        C  0.48364805  0.97328081  0.34774220     0.77900
O722        O  0.45831485  0.91425450  0.30826423    -0.60600
O723        O  0.41418537  0.92264337  0.31545401    -0.51500
C724        C  0.46862071  0.88179554  0.36824335     0.70500
O725        O  0.48297392  0.90476709  0.36713078    -0.46300
C726        C  0.40747636  0.96213745  0.38060504     0.75200
O727        O  0.47796734  0.96119898  0.37132732    -0.58200
O728        O  0.41666145  0.96919567  0.35624277    -0.48300
O729        O  0.47133908  0.96281501  0.32606875    -0.54600
C730        C  0.43343943  0.91453366  0.29814677     0.85400
O731        O  0.44199279  0.88479285  0.36451508    -0.56500
O732        O  0.41606925  0.93778922  0.38903102    -0.59800
In733      In  0.16554842  0.95301921  0.56725592     1.36900
C734        C  0.13334492  0.98857979  0.53839024     0.77900
O735        O  0.20626983  0.97119693  0.55005639    -0.60600
O736        O  0.20906509  0.93403748  0.57622365    -0.51500
C737        C  0.15837159  0.96680909  0.62284285     0.70500
O738        O  0.16152014  0.98510169  0.60331371    -0.46300
C739        C  0.14908265  0.90960531  0.53300775     0.75200
O740        O  0.12299940  0.96590019  0.54906642    -0.58200
O741        O  0.16517749  0.92978846  0.52489734    -0.48300
O742        O  0.15864572  0.99467938  0.54572954    -0.54600
C743        C  0.22210392  0.95275493  0.56157894     0.85400
O744        O  0.15735155  0.94105107  0.61407187    -0.56500
O745        O  0.14305670  0.91018205  0.55955784    -0.59800
In746      In  0.35813425  0.93990777  0.55737131     1.36900
C747        C  0.38696925  0.96825175  0.51840916     0.77900
O748        O  0.31335453  0.95323258  0.54776617    -0.60600
O749        O  0.32002391  0.92476680  0.58273371    -0.51500
C750        C  0.36481926  0.88596473  0.53948463     0.70500
O751        O  0.35518298  0.90559503  0.52376724    -0.46300
C752        C  0.37738810  0.97454732  0.59889321     0.75200
O753        O  0.39956822  0.95530473  0.53850649    -0.58200
O754        O  0.36010857  0.98263364  0.57981299    -0.48300
O755        O  0.36017234  0.96466194  0.51705869    -0.54600
C756        C  0.30235125  0.93840315  0.56757774     0.85400
O757        O  0.37249541  0.89396028  0.56433045    -0.56500
O758        O  0.38345246  0.94798686  0.59801985    -0.59800
In759      In  0.35546747  0.06438453  0.45672962     1.36900
C760        C  0.38822647  0.03762500  0.49341913     0.77900
O761        O  0.31433401  0.04685625  0.47358191    -0.60600
O762        O  0.31240749  0.07276807  0.43619906    -0.51500
C763        C  0.36145959  0.11991755  0.47088588     0.70500
O764        O  0.35629566  0.10047607  0.48881795    -0.46300
C765        C  0.37427582  0.03016549  0.41442672     0.75200
O766        O  0.39872939  0.04969241  0.47159413    -0.58200
O767        O  0.35804218  0.02161103  0.43425319    -0.48300
O768        O  0.36200507  0.04217970  0.49796371    -0.54600
C769        C  0.29891909  0.05824596  0.45469129     0.85400
O770        O  0.36455621  0.11114716  0.44535001    -0.56500
O771        O  0.37914824  0.05701839  0.41473302    -0.59800
In772      In  0.16298302  0.05313980  0.43984698     1.36900
C773        C  0.13608036  0.01215784  0.46749116     0.77900
O774        O  0.20068285  0.08126737  0.42808887    -0.60600
O775        O  0.20781558  0.04391142  0.45315592    -0.51500
C776        C  0.15662757  0.03703460  0.38517022     0.70500
O777        O  0.16919695  0.02202425  0.40360857    -0.46300
C778        C  0.14113278  0.09292767  0.47495368     0.75200
O779        O  0.12252589  0.03175711  0.45477127    -0.58200
O780        O  0.13701755  0.09333654  0.44806310    -0.48300
O781        O  0.16281921  0.01199174  0.46354738    -0.54600
C782        C  0.21857608  0.06528483  0.44047237     0.85400
O783        O  0.14625086  0.06031562  0.39463263    -0.56500
O784        O  0.15784023  0.07348211  0.48335223    -0.59800
In785      In  0.07813758  0.34464817  0.57122756     1.36900
C786        C  0.04306809  0.34404812  0.52731032     0.77900
O787        O  0.08711907  0.29847821  0.56364631    -0.60600
O788        O  0.08044900  0.31180061  0.60679353    -0.51500
C789        C  0.13057500  0.35811361  0.55306587     0.70500
O790        O  0.10870501  0.36071386  0.53764481    -0.46300
C791        C  0.04436495  0.37464669  0.60680626     0.75200
O792        O  0.05133518  0.36732786  0.53867671    -0.58200
O793        O  0.03741306  0.35078817  0.59599431    -0.48300
O794        O  0.05358196  0.32150132  0.53773010    -0.54600
C795        C  0.08520940  0.29135533  0.58958232     0.85400
O796        O  0.12552483  0.35217754  0.57898773    -0.56500
O797        O  0.06956444  0.38280999  0.60069923    -0.59800
In798      In  0.07172680  0.15824541  0.57450935     1.36900
C799        C  0.02898275  0.15947328  0.53786924     0.77900
O800        O  0.06561409  0.20409511  0.58695761    -0.60600
O801        O  0.10711065  0.19141351  0.57341913    -0.51500
C802        C  0.05267608  0.14543123  0.62674959     0.70500
O803        O  0.03771582  0.14208529  0.60455575    -0.46300
C804        C  0.10765697  0.12656277  0.54278830     0.75200
O805        O  0.03842539  0.13601739  0.54755319    -0.58200
O806        O  0.09552796  0.14892311  0.53392673    -0.48300
O807        O  0.04036805  0.18184566  0.54808146    -0.54600
C808        C  0.09095896  0.21151898  0.58155110     0.85400
O809        O  0.07858821  0.15170756  0.62213108    -0.56500
O810        O  0.10255350  0.12071108  0.56885139    -0.59800
In811      In  0.94012423  0.15593818  0.43668483     1.36900
C812        C  0.98004556  0.14466185  0.47453316     0.77900
O813        O  0.94755201  0.20223170  0.44415407    -0.60600
O814        O  0.91293341  0.19122686  0.41673614    -0.51500
C815        C  0.96267383  0.14485639  0.38476166     0.70500
O816        O  0.97753778  0.15099671  0.40643394    -0.46300
C817        C  0.90003642  0.13157683  0.47015958     0.75200
O818        O  0.96876636  0.12468786  0.45983309    -0.58200
O819        O  0.91068388  0.15597404  0.47490259    -0.48300
O820        O  0.97233735  0.16977307  0.46799958    -0.54600
C821        C  0.92750840  0.21096044  0.42844904     0.85400
O822        O  0.93620124  0.14208904  0.38982436    -0.56500
O823        O  0.90754525  0.12055000  0.44644203    -0.59800
In824      In  0.93961732  0.34842688  0.44112992     1.36900
C825        C  0.98073847  0.35937050  0.47806242     0.77900
O826        O  0.94104440  0.30657853  0.46287429    -0.60600
O827        O  0.92842029  0.30601578  0.41896205    -0.51500
C828        C  0.88703311  0.35957654  0.46058719     0.70500
O829        O  0.90921961  0.36336472  0.47546596    -0.46300
C830        C  0.96779931  0.37516493  0.39858003     0.75200
O831        O  0.96203595  0.37807110  0.47235530    -0.58200
O832        O  0.97283812  0.34963898  0.40579279    -0.48300
O833        O  0.97775485  0.33567608  0.46523747    -0.54600
C834        C  0.93356252  0.29179575  0.44153290     0.85400
O835        O  0.89167601  0.35279798  0.43469767    -0.56500
O836        O  0.94584098  0.38575906  0.41034938    -0.59800
In837      In  0.07455280  0.55950202  0.65961050     1.36900
C838        C  0.03297828  0.52612001  0.64117487     0.77900
O839        O  0.06977819  0.53860217  0.70202532    -0.60600
O840        O  0.08676007  0.58114261  0.70150031    -0.51500
C841        C  0.12726797  0.54043895  0.64881396     0.70500
O842        O  0.10569167  0.52410412  0.64948514    -0.46300
C843        C  0.04681034  0.60341637  0.63600952     0.75200
O844        O  0.05464474  0.53085509  0.62559823    -0.58200
O845        O  0.04111016  0.59390231  0.66057351    -0.48300
O846        O  0.03413879  0.53664835  0.66608927    -0.54600
C847        C  0.07935590  0.55956504  0.71625814     0.85400
O848        O  0.12180530  0.56691993  0.65166147    -0.56500
O849        O  0.06951403  0.59345047  0.62507945    -0.59800
In850      In  0.07532399  0.57635206  0.85129602     1.36900
C851        C  0.03093577  0.54268905  0.86062780     0.77900
O852        O  0.07574142  0.55682903  0.80772721    -0.60600
O853        O  0.09730090  0.59665469  0.81280035    -0.51500
C854        C  0.05357935  0.62878936  0.86038227     0.70500
O855        O  0.03845287  0.60649264  0.85851112    -0.46300
C856        C  0.11534481  0.54855383  0.88163668     0.75200
O857        O  0.04909144  0.54760024  0.88013034    -0.58200
O858        O  0.10504899  0.57233814  0.88982601    -0.48300
O859        O  0.03486836  0.55605702  0.83751540    -0.54600
C860        C  0.08888000  0.57720510  0.79583249     0.85400
O861        O  0.08026821  0.62436189  0.85986243    -0.56500
O862        O  0.10734771  0.54083388  0.85700910    -0.59800
In863      In  0.95197772  0.43404167  0.85802745     1.36900
C864        C  0.98865059  0.47473210  0.87252199     0.77900
O865        O  0.97449785  0.43825206  0.81639086    -0.60600
O866        O  0.93150918  0.42303401  0.81523849    -0.51500
C867        C  0.96845348  0.38006708  0.86691050     0.70500
O868        O  0.98472934  0.40135905  0.87091905    -0.46300
C869        C  0.90859104  0.46168586  0.88362959     0.75200
O870        O  0.98629660  0.45218873  0.88745767    -0.58200
O871        O  0.91620300  0.46623691  0.85818210    -0.48300
O872        O  0.97280957  0.47555773  0.85069334    -0.54600
C873        C  0.95376258  0.42986816  0.80131901     0.85400
O874        O  0.94277945  0.38630054  0.86107753    -0.56500
O875        O  0.92065050  0.44030571  0.89509792    -0.59800
In876      In  0.93878985  0.44094300  0.66667014     1.36900
C877        C  0.96453725  0.48865971  0.65168298     0.77900
O878        O  0.92187125  0.41293530  0.70279720    -0.60600
O879        O  0.95511969  0.44285808  0.71128516    -0.51500
C880        C  0.88490577  0.45704988  0.65654630     0.70500
O881        O  0.90191036  0.47075677  0.67233816    -0.46300
C882        C  0.97519292  0.40444712  0.64105440     0.75200
O883        O  0.95828176  0.46967888  0.63323013    -0.58200
O884        O  0.94831682  0.40264606  0.63770962    -0.48300
O885        O  0.95563138  0.48406115  0.67675729    -0.54600
C886        C  0.93797627  0.42452813  0.72124000     0.85400
O887        O  0.89537731  0.43481490  0.64485877    -0.56500
O888        O  0.98300539  0.42391370  0.65818318    -0.59800
In889      In  0.94997929  0.85086366  0.57420706     1.36900
C890        C  0.98884050  0.85932157  0.53423056     0.77900
O891        O  0.96233173  0.80540424  0.57283876    -0.60600
O892        O  0.92059094  0.81490473  0.58857242    -0.51500
C893        C  0.96952296  0.86137444  0.62691424     0.70500
O894        O  0.98562357  0.85581436  0.60599498    -0.46300
C895        C  0.91193338  0.87876894  0.54249782     0.75200
O896        O  0.98493006  0.87740703  0.55412033    -0.58200
O897        O  0.91507742  0.85194961  0.54123443    -0.48300
O898        O  0.97367164  0.83690258  0.53570437    -0.54600
C899        C  0.93894495  0.79590726  0.58250644     0.85400
O900        O  0.94325743  0.86370935  0.62072425    -0.56500
O901        O  0.92514235  0.89087961  0.56294470    -0.59800
In902      In  0.94377298  0.65914308  0.56510768     1.36900
C903        C  0.97028996  0.64604209  0.51741485     0.77900
O904        O  0.93105129  0.70099352  0.58696433    -0.60600
O905        O  0.96342259  0.70120216  0.55501280    -0.51500
C906        C  0.88862646  0.64757729  0.55324856     0.70500
O907        O  0.90896224  0.64018977  0.53722766    -0.46300
C908        C  0.97795210  0.63502808  0.60455941     0.75200
O909        O  0.96947234  0.62874436  0.53828595    -0.58200
O910        O  0.95228461  0.62695739  0.60096864    -0.48300
O911        O  0.95521347  0.66836178  0.52006420    -0.54600
C912        C  0.94885221  0.71545535  0.57256433     0.85400
O913        O  0.89631619  0.65859717  0.57683305    -0.56500
O914        O  0.98515872  0.65604762  0.58937259    -0.59800
In915      In  0.08016551  0.65219172  0.44280768     1.36900
C916        C  0.03814346  0.63554828  0.47659091     0.77900
O917        O  0.07433247  0.69445704  0.46313413    -0.60600
O918        O  0.09379883  0.69415577  0.42178523    -0.51500
C919        C  0.13269599  0.64301928  0.46216199     0.70500
O920        O  0.11134295  0.64520633  0.47853347    -0.46300
C921        C  0.05365015  0.62663996  0.39936441     0.75200
O922        O  0.06039005  0.62038548  0.47374246    -0.58200
O923        O  0.04926471  0.65246633  0.40616469    -0.48300
O924        O  0.03844000  0.65899876  0.46318285    -0.54600
C925        C  0.08519108  0.70878405  0.44305365     0.85400
O926        O  0.12702680  0.64304426  0.43562508    -0.56500
O927        O  0.07485231  0.61523461  0.41166593    -0.59800
In928      In  0.07929112  0.84380891  0.43415484     1.36900
C929        C  0.03461086  0.84553091  0.46848402     0.77900
O930        O  0.07855238  0.79900321  0.44919518    -0.60600
O931        O  0.10612551  0.80800915  0.41421025    -0.51500
C932        C  0.05783333  0.85470704  0.38173451     0.70500
O933        O  0.04345107  0.85717480  0.40439925    -0.46300
C934        C  0.11710221  0.87523249  0.46476354     0.75200
O935        O  0.05063351  0.86716847  0.46486050    -0.58200
O936        O  0.11105285  0.84950019  0.47035470    -0.48300
O937        O  0.04041847  0.82393176  0.45319034    -0.54600
C938        C  0.09535205  0.78921381  0.43050264     0.85400
O939        O  0.08395688  0.84919462  0.38576794    -0.56500
O940        O  0.10594572  0.88429967  0.44182150    -0.59800
In941      In  0.94888858  0.56852803  0.16196889     1.36900
C942        C  0.98687243  0.53112034  0.14508612     0.77900
O943        O  0.96311777  0.56510833  0.20689081    -0.60600
O944        O  0.92133924  0.58158691  0.19982962    -0.51500
C945        C  0.96934673  0.62118354  0.15025393     0.70500
O946        O  0.98506030  0.59989090  0.15522988    -0.46300
C947        C  0.90807793  0.53408471  0.14049174     0.75200
O948        O  0.97617208  0.54865417  0.12742998    -0.58200
O949        O  0.92211094  0.52846716  0.16273310    -0.48300
O950        O  0.97977386  0.53468530  0.17098609    -0.54600
C951        C  0.94024806  0.57436688  0.21775202     0.85400
O952        O  0.94283395  0.61548323  0.14944007    -0.56500
O953        O  0.91291554  0.55887509  0.13025854    -0.59800
In954      In  0.94770820  0.55425742  0.35343333     1.36900
C955        C  0.97370973  0.51381875  0.38264454     0.77900
O956        O  0.96539448  0.54186672  0.31110275    -0.60600
O957        O  0.93581512  0.57655087  0.31219519    -0.51500
C958        C  0.89236934  0.54185347  0.36148455     0.70500
O959        O  0.90972891  0.52511514  0.34945285    -0.46300
C960        C  0.98411427  0.59549273  0.36945602     0.75200
O961        O  0.96576426  0.53687641  0.39451976    -0.58200
O962        O  0.99128512  0.57402649  0.35462057    -0.48300
O963        O  0.96559532  0.51032857  0.35707387    -0.54600
C964        C  0.95185924  0.56059072  0.29729570     0.85400
O965        O  0.90321241  0.56527121  0.37031693    -0.56500
O966        O  0.95756857  0.59691946  0.37510134    -0.59800
In967      In  0.07496521  0.43247593  0.15976229     1.36900
C968        C  0.02855201  0.46308789  0.15280386     0.77900
O969        O  0.06260800  0.44311771  0.20423419    -0.60600
O970        O  0.10369097  0.42467461  0.19827462    -0.51500
C971        C  0.05990462  0.37747765  0.14948903     0.70500
O972        O  0.08316778  0.38416918  0.16153290    -0.46300
C973        C  0.11297516  0.46645627  0.13220616     0.75200
O974        O  0.04731435  0.46150110  0.13334234    -0.58200
O975        O  0.10109020  0.47334303  0.15544814    -0.48300
O976        O  0.03249092  0.44719412  0.17422654    -0.54600
C977        C  0.08522038  0.43419503  0.21568474     0.85400
O978        O  0.04643543  0.39852489  0.13947057    -0.56500
O979        O  0.10717379  0.44112354  0.12391235    -0.59800
In980      In  0.07174597  0.45061025  0.35167934     1.36900
C981        C  0.04346822  0.48715987  0.38381088     0.77900
O982        O  0.05516226  0.46482773  0.30935523    -0.60600
O983        O  0.08611684  0.43136849  0.30968296    -0.51500
C984        C  0.12646476  0.46611229  0.35995573     0.70500
O985        O  0.10743293  0.48308106  0.35135937    -0.46300
C986        C  0.03639386  0.40745697  0.36606837     0.75200
O987        O  0.05443328  0.46482881  0.39442693    -0.58200
O988        O  0.02880408  0.42860207  0.35111275    -0.48300
O989        O  0.04979064  0.49218863  0.35798382    -0.54600
C990        C  0.07034978  0.44768504  0.29502661     0.85400
O991        O  0.11751987  0.44102844  0.36574539    -0.56500
O992        O  0.06293832  0.40698658  0.37189923    -0.59800
In993      In  0.16188852  0.57159974  0.05764095     1.36900
C994        C  0.13025179  0.54470889  0.01942178     0.77900
O995        O  0.20382519  0.55478853  0.04271008    -0.60600
O996        O  0.20401173  0.58294848  0.07876635    -0.51500
C997        C  0.15619042  0.62704776  0.04370879     0.70500
O998        O  0.16391260  0.60791608  0.02628533    -0.46300
C999        C  0.14400595  0.53632628  0.09951963     0.75200
O1000       O  0.11922637  0.55605076  0.04142006    -0.58200
O1001       O  0.16018968  0.52845921  0.07934937    -0.48300
O1002       O  0.15647462  0.54996922  0.01554824    -0.54600
C1003       C  0.21838379  0.56806041  0.06124471     0.85400
O1004       O  0.14997551  0.61793449  0.06852389    -0.56500
O1005       O  0.13864556  0.56306373  0.09974407    -0.59800
In1006     In  0.35396677  0.56893293  0.07403246     1.36900
C1007       C  0.37518116  0.52988021  0.03984800     0.77900
O1008       O  0.30905447  0.55681670  0.06484783    -0.60600
O1009       O  0.31597140  0.59636661  0.08678941    -0.51500
C1010       C  0.36170601  0.54986198  0.12767022     0.70500
O1011       O  0.35428851  0.53390533  0.10711884    -0.46300
C1012       C  0.37736248  0.60907524  0.03994066     0.75200
O1013       O  0.39107706  0.54247248  0.05791909    -0.58200
O1014       O  0.38578661  0.60522852  0.06549283    -0.48300
O1015       O  0.34875504  0.53499976  0.04189499    -0.54600
C1016       C  0.29813201  0.57877136  0.07625498     0.85400
O1017       O  0.36656531  0.57575665  0.12084242    -0.56500
O1018       O  0.35561782  0.59455617  0.03320087    -0.59800
In1019     In  0.16095280  0.44607987  0.96014214     1.36900
C1020       C  0.12853830  0.47419242  0.99649118     0.77900
O1021       O  0.20298201  0.46177817  0.97582751    -0.60600
O1022       O  0.20277249  0.43429992  0.93917532    -0.51500
C1023       C  0.15353753  0.39087577  0.97452918     0.70500
O1024       O  0.16326496  0.40963175  0.99142138    -0.46300
C1025       C  0.14660574  0.48121721  0.91721548     0.75200
O1026       O  0.11800274  0.46234624  0.97446911    -0.58200
O1027       O  0.16029293  0.48951295  0.93903051    -0.48300
O1028       O  0.15448152  0.46866545  0.00145250    -0.54600
C1029       C  0.21730344  0.44866659  0.95704853     0.85400
O1030       O  0.14631617  0.40030936  0.95013941    -0.56500
O1031       O  0.14178079  0.45435735  0.91630628    -0.59800
In1032     In  0.35171351  0.45284742  0.93973310     1.36900
C1033       C  0.36966378  0.49731672  0.96909433     0.77900
O1034       O  0.30749644  0.45934540  0.95481029    -0.60600
O1035       O  0.31408290  0.42534814  0.92513823    -0.51500
C1036       C  0.36027037  0.46964646  0.88534862     0.70500
O1037       O  0.35020098  0.48571100  0.90451221    -0.46300
C1038       C  0.37590191  0.41434139  0.97489677     0.75200
O1039       O  0.38683857  0.47780841  0.96145628    -0.58200
O1040       O  0.35597180  0.43083705  0.98253116    -0.48300
O1041       O  0.34455437  0.49517332  0.95950135    -0.54600
C1042       C  0.29648342  0.43966465  0.93989216     0.85400
O1043       O  0.36764047  0.44500792  0.89401972    -0.56500
O1044       O  0.38247007  0.41615235  0.94856031    -0.59800
In1045     In  0.57768394  0.66355989  0.08253983     1.36900
C1046       C  0.53781436  0.66595608  0.04290101     0.77900
O1047       O  0.57176816  0.70849979  0.09802010    -0.60600
O1048       O  0.61384614  0.69582520  0.08654531    -0.51500
C1049       C  0.55543795  0.64831032  0.13308887     0.70500
O1050       O  0.54067623  0.65064466  0.11066045    -0.46300
C1051       C  0.61295364  0.63188804  0.04984446     0.75200
O1052       O  0.54451621  0.64258556  0.05480976    -0.58200
O1053       O  0.60332467  0.65594700  0.04237784    -0.48300
O1054       O  0.55012988  0.68809763  0.05263097    -0.54600
C1055       C  0.59755725  0.71570183  0.09498993     0.85400
O1056       O  0.58215311  0.65060048  0.12926643    -0.56500
O1057       O  0.60640011  0.62471531  0.07524881    -0.59800
In1058     In  0.57767583  0.84515772  0.07899323     1.36900
C1059       C  0.54197751  0.85407283  0.03665772     0.77900
O1060       O  0.58197348  0.79787743  0.07528496    -0.60600
O1061       O  0.58798564  0.81624162  0.11667170    -0.51500
C1062       C  0.62940392  0.85455613  0.05607507     0.70500
O1063       O  0.60972530  0.84094480  0.04359025    -0.46300
C1064       C  0.54216170  0.87407825  0.11372169     0.75200
O1065       O  0.56069150  0.87251596  0.04360184    -0.58200
O1066       O  0.56798333  0.88192973  0.10994837    -0.48300
O1067       O  0.54283215  0.83064366  0.05030630    -0.54600
C1068       C  0.58745767  0.79382878  0.10136433     0.85400
O1069       O  0.62254886  0.86493104  0.08033872    -0.56500
O1070       O  0.53550766  0.85097727  0.10120060    -0.59800
In1071     In  0.44149729  0.84820718  0.94600802     1.36900
C1072       C  0.47484240  0.84750779  0.99141682     0.77900
O1073       O  0.41740084  0.81222021  0.92344911    -0.60600
O1074       O  0.45793289  0.80395282  0.94198799    -0.51500
C1075       C  0.38953366  0.86259095  0.96486941     0.70500
O1076       O  0.39449467  0.85683277  0.93885466    -0.46300
C1077       C  0.47218839  0.87781219  0.90745458     0.75200
O1078       O  0.47489593  0.86831050  0.97406839    -0.58200
O1079       O  0.44986740  0.88803947  0.91887090    -0.48300
O1080       O  0.45598293  0.82858889  0.98693031    -0.54600
C1081       C  0.43634662  0.79396101  0.92927291     0.85400
O1082       O  0.41140958  0.86373422  0.98062688    -0.56500
O1083       O  0.47701853  0.85206330  0.91377331    -0.59800
In1084     In  0.45332853  0.65884583  0.93791878     1.36900
C1085       C  0.49176379  0.64901106  0.97783576     0.77900
O1086       O  0.47599649  0.70027415  0.93496186    -0.60600
O1087       O  0.43068340  0.70051055  0.92884255    -0.51500
C1088       C  0.46837048  0.64609728  0.88401480     0.70500
O1089       O  0.48258733  0.63772355  0.90539301    -0.46300
C1090       C  0.41023983  0.63766385  0.96976221     0.75200
O1091       O  0.48182867  0.62857525  0.96277997    -0.58200
O1092       O  0.42301857  0.66079523  0.97546753    -0.48300
O1093       O  0.48352471  0.67371046  0.97073507    -0.54600
C1094       C  0.45383696  0.71473492  0.93009210     0.85400
O1095       O  0.44477562  0.65768781  0.89016434    -0.56500
O1096       O  0.41721031  0.62667703  0.94588401    -0.59800
In1097     In  0.84809192  0.56641165  0.95019376     1.36900
C1098       C  0.85924400  0.53764327  0.99684482     0.77900
O1099       O  0.80320236  0.55585205  0.96292312    -0.60600
O1100       O  0.80942198  0.57566423  0.92250561    -0.51500
C1101       C  0.86132656  0.62144227  0.96279589     0.70500
O1102       O  0.86953932  0.60058228  0.97766464    -0.46300
C1103       C  0.87295633  0.53063385  0.91219174     0.75200
O1104       O  0.87699037  0.53886659  0.97641625    -0.58200
O1105       O  0.85193004  0.52361506  0.92752133    -0.48300
O1106       O  0.83728588  0.55315659  0.99433084    -0.54600
C1107       C  0.79190455  0.56564812  0.94052191     0.85400
O1108       O  0.84897785  0.61429801  0.93981390    -0.56500
O1109       O  0.88037516  0.55674152  0.91478855    -0.59800
In1110     In  0.65527318  0.55078583  0.94677418     1.36900
C1111       C  0.62300877  0.51480567  0.97591795     0.77900
O1112       O  0.69644509  0.53299883  0.96330749    -0.60600
O1113       O  0.69848401  0.56979938  0.93648936    -0.51500
C1114       C  0.64931926  0.53786638  0.89068827     0.70500
O1115       O  0.65289979  0.51927185  0.90986589    -0.46300
C1116       C  0.63989101  0.59480377  0.98077399     0.75200
O1117       O  0.61237389  0.53678536  0.96429954    -0.58200
O1118       O  0.63198332  0.59292353  0.95480859    -0.48300
O1119       O  0.64876985  0.50972419  0.96969775    -0.54600
C1120       C  0.71195409  0.55130889  0.95087661     0.85400
O1121       O  0.64688338  0.56327990  0.90012405    -0.56500
O1122       O  0.65723030  0.57560153  0.98836003    -0.59800
In1123     In  0.66097704  0.44906031  0.06943151     1.36900
C1124       C  0.62936679  0.48820130  0.04430573     0.77900
O1125       O  0.70351208  0.45801087  0.05010757    -0.60600
O1126       O  0.70135102  0.42677826  0.08341108    -0.51500
C1127       C  0.65704664  0.46659639  0.12396703     0.70500
O1128       O  0.66644687  0.48216668  0.10401959    -0.46300
C1129       C  0.64242554  0.40725177  0.03455022     0.75200
O1130       O  0.61841917  0.46559050  0.05451303    -0.58200
O1131       O  0.65927024  0.42692982  0.02664544    -0.48300
O1132       O  0.65579837  0.49163546  0.04894133    -0.54600
C1133       C  0.71673723  0.44051803  0.06583294     0.85400
O1134       O  0.64860486  0.44179792  0.11614737    -0.56500
O1135       O  0.63645837  0.40760143  0.06117021    -0.59800
In1136     In  0.85154807  0.43009850  0.07315361     1.36900
C1137       C  0.86810887  0.46890556  0.03626650     0.77900
O1138       O  0.80722674  0.43355004  0.05746555    -0.60600
O1139       O  0.81279585  0.41913094  0.10035040    -0.51500
C1140       C  0.86139777  0.37733735  0.05244120     0.70500
O1141       O  0.85816565  0.39905063  0.03678005    -0.46300
C1142       C  0.87608160  0.46265278  0.11357740     0.75200
O1143       O  0.88512138  0.44938160  0.04415228    -0.58200
O1144       O  0.88588181  0.43810020  0.10700118    -0.48300
O1145       O  0.84279629  0.46667982  0.04543301    -0.54600
C1146       C  0.79557409  0.42573026  0.08052885     0.85400
O1147       O  0.86145879  0.38259502  0.07912397    -0.56500
O1148       O  0.85238128  0.46839101  0.10229659    -0.59800
In1149     In  0.58330645  0.16321380  0.94616582     1.36900
C1150       C  0.54527728  0.16768812  0.98729751     0.77900
O1151       O  0.60441730  0.20507777  0.95566354    -0.60600
O1152       O  0.58821750  0.19871522  0.91355810    -0.51500
C1153       C  0.63269696  0.14282440  0.96545511     0.70500
O1154       O  0.61046253  0.14360813  0.98073221    -0.46300
C1155       C  0.54797345  0.13762932  0.90850076     0.75200
O1156       O  0.55341808  0.14349774  0.97800572    -0.58200
O1157       O  0.54210976  0.16048318  0.92168910    -0.48300
O1158       O  0.55799376  0.18919678  0.97692074    -0.54600
C1159       C  0.60034754  0.21544115  0.93120991     0.85400
O1160       O  0.62875097  0.14824368  0.93920803    -0.56500
O1161       O  0.57305643  0.12832490  0.91306945    -0.59800
In1162     In  0.57288542  0.34463941  0.93375463     1.36900
C1163       C  0.53442520  0.34113876  0.97461540     0.77900
O1164       O  0.56003094  0.30244613  0.91563325    -0.60600
O1165       O  0.60397759  0.30831432  0.92612462    -0.51500
C1166       C  0.55112195  0.36146266  0.88410907     0.70500
O1167       O  0.53700936  0.36233922  0.90716014    -0.46300
C1168       C  0.61161962  0.37352739  0.96535604     0.75200
O1169       O  0.54027461  0.36474401  0.96252668    -0.58200
O1170       O  0.60430258  0.38178502  0.94054542    -0.48300
O1171       O  0.54718168  0.31944758  0.96478267    -0.54600
C1172       C  0.58458351  0.29168865  0.91676674     0.85400
O1173       O  0.57754103  0.35644317  0.88706858    -0.56500
O1174       O  0.60118970  0.34963909  0.97247295    -0.59800
In1175     In  0.44523881  0.35195536  0.07594852     1.36900
C1176       C  0.48623425  0.35785131  0.03789002     0.77900
O1177       O  0.45258884  0.30589008  0.08692921    -0.60600
O1178       O  0.40997079  0.31861807  0.07816710    -0.51500
C1179       C  0.46571687  0.36357672  0.12803432     0.70500
O1180       O  0.48139835  0.35831050  0.10676840    -0.46300
C1181       C  0.40864726  0.38203761  0.04371799     0.75200
O1182       O  0.47769151  0.37882638  0.05283677    -0.58200
O1183       O  0.41465996  0.38944382  0.06928122    -0.48300
O1184       O  0.47489285  0.33387852  0.04371898    -0.54600
C1185       C  0.42682021  0.29849395  0.08435472     0.85400
O1186       O  0.43929740  0.36575774  0.12240797    -0.56500
O1187       O  0.41991211  0.35876597  0.03580895    -0.59800
In1188     In  0.44123743  0.16600934  0.07300013     1.36900
C1189       C  0.47853906  0.15632250  0.03209528     0.77900
O1190       O  0.43651007  0.21282036  0.06622468    -0.60600
O1191       O  0.43424733  0.19804005  0.10919851    -0.51500
C1192       C  0.38910166  0.15576535  0.05118360     0.70500
O1193       O  0.40842546  0.16929006  0.03817503    -0.46300
C1194       C  0.47556073  0.13830044  0.10952375     0.75200
O1195       O  0.46103900  0.13702721  0.03979413    -0.58200
O1196       O  0.48300829  0.16019876  0.09557802    -0.48300
O1197       O  0.47527595  0.18052802  0.04393165    -0.54600
C1198       C  0.43379912  0.21915289  0.09229131     0.85400
O1199       O  0.39658064  0.14575779  0.07530064    -0.56500
O1200       O  0.44945546  0.13116450  0.10633600    -0.59800
C1201       C  0.41791887  0.26828378  0.08567302    -0.16100
C1202       C  0.43233426  0.24923094  0.10158839    -0.31300
H1203       H  0.40231823  0.26086396  0.06998258     0.12900
H1204       H  0.44691911  0.25643916  0.11831212     0.13500
C1205       C  0.51461816  0.33854868  0.99867121    -0.16100
C1206       C  0.50693704  0.36125989  0.01456071    -0.31300
H1207       H  0.50691223  0.31713213  0.00399100     0.12900
H1208       H  0.51523893  0.38259260  0.00983971     0.13500
C1209       C  0.52204413  0.17123617  0.00786748    -0.16100
C1210       C  0.50197305  0.15097667  0.01191304    -0.31300
H1211       H  0.52043177  0.19196089  0.01860895     0.12900
H1212       H  0.50311552  0.13040422  0.00083845     0.13500
C1213       C  0.60696163  0.24565907  0.92546394    -0.16100
C1214       C  0.58877188  0.26125185  0.90995947    -0.31300
H1215       H  0.62188883  0.25642819  0.93985790     0.12900
H1216       H  0.57193935  0.25048941  0.89783414     0.13500
C1217       C  0.62941997  0.38653405  0.01394573    -0.16100
C1218       C  0.62945548  0.39110785  0.98522781    -0.31300
H1219       H  0.61712826  0.36873522  0.02272029     0.12900
H1220       H  0.64033128  0.40986164  0.97656039     0.13500
C1221       C  0.74780506  0.43709099  0.06332251    -0.16100
C1222       C  0.76421127  0.42538419  0.08383828    -0.31300
H1223       H  0.75773004  0.44638410  0.04438191     0.12900
H1224       H  0.75475416  0.41716596  0.10348439     0.13500
C1225       C  0.60875290  0.49847060  0.99856631    -0.16100
C1226       C  0.61391023  0.50775499  0.02538879    -0.31300
H1227       H  0.60706350  0.47541696  0.99485579     0.12900
H1228       H  0.61876801  0.53047016  0.02852195     0.13500
C1229       C  0.86177463  0.51762260  0.02059846    -0.16100
C1230       C  0.87643214  0.49301575  0.01801164    -0.31300
H1231       H  0.84661205  0.52029585  0.03813369     0.12900
H1232       H  0.89179874  0.48966845  0.00082183     0.13500
C1233       C  0.76068141  0.56574908  0.93611417    -0.16100
C1234       C  0.74328250  0.55091995  0.95364679    -0.31300
H1235       H  0.75191951  0.57809639  0.91845184     0.12900
H1236       H  0.75229377  0.53760376  0.97047951     0.13500
C1237       C  0.43325962  0.76305872  0.92352722    -0.16100
C1238       C  0.45581078  0.74596255  0.92783610    -0.31300
H1239       H  0.41230071  0.75417250  0.91852172     0.12900
H1240       H  0.47671309  0.75535920  0.93227985     0.13500
C1241       C  0.52015912  0.85978205  0.01490795    -0.16100
C1242       C  0.49596301  0.84423908  0.01428006    -0.31300
H1243       H  0.52375523  0.87704083  0.99965406     0.12900
H1244       H  0.49249031  0.82714855  0.02976936     0.13500
C1245       C  0.62922135  0.61302044  0.02988389    -0.16100
C1246       C  0.62843224  0.61666495  0.00105776    -0.31300
H1247       H  0.63959021  0.59417105  0.03876553     0.12900
H1248       H  0.61649720  0.63452258  0.99210294     0.13500
C1249       C  0.51077885  0.64494914  0.00254561    -0.16100
C1250       C  0.51798104  0.66777755  0.01880038    -0.31300
H1251       H  0.51856726  0.62356840  0.00758109     0.12900
H1252       H  0.51045532  0.68913797  0.01323955     0.13500
C1253       C  0.60682296  0.74574327  0.09780652    -0.16100
C1254       C  0.59099155  0.76470464  0.11259206    -0.31300
H1255       H  0.62294211  0.75336010  0.08278291     0.12900
H1256       H  0.57555086  0.75734436  0.12842232     0.13500
C1257       C  0.39104324  0.39520762  0.99528501    -0.16100
C1258       C  0.39073793  0.39952531  0.02406304    -0.31300
H1259       H  0.40448247  0.37843945  0.98624679     0.12900
H1260       H  0.37871915  0.41736931  0.03307138     0.13500
C1261       C  0.24854581  0.45075595  0.95659221    -0.16100
C1262       C  0.26536418  0.43471474  0.93957383    -0.31300
H1263       H  0.25805479  0.46632772  0.97124074     0.12900
H1264       H  0.25627813  0.41868223  0.92517903     0.13500
C1265       C  0.39269571  0.62764853  0.01902360    -0.16100
C1266       C  0.39032891  0.62358977  0.99029029    -0.31300
H1267       H  0.40865734  0.64256184  0.02731410     0.12900
H1268       H  0.37604242  0.60702061  0.98205477     0.13500
C1269       C  0.38594969  0.51259634  0.01599909    -0.16100
C1270       C  0.37660534  0.51969868  0.98978098    -0.31300
H1271       H  0.39549275  0.49176969  0.02027121     0.12900
H1272       H  0.36561132  0.54010061  0.98694034     0.13500
C1273       C  0.11554332  0.52323659  0.00179498    -0.16100
C1274       C  0.11388052  0.49661178  0.01279698    -0.31300
H1275       H  0.11854248  0.52542501  0.97873853     0.12900
H1276       H  0.11446841  0.49425686  0.03601366     0.13500
C1277       C  0.24968557  0.56559634  0.06180837    -0.16100
C1278       C  0.26689186  0.58310207  0.07704062    -0.31300
H1279       H  0.25895279  0.54892500  0.04832101     0.12900
H1280       H  0.25807622  0.60060173  0.08973158     0.13500
C1281       C  0.13082387  0.48683963  0.11519968    -0.16100
C1282       C  0.13092113  0.51561459  0.12007040    -0.31300
H1283       H  0.14186311  0.47832297  0.09650537     0.12900
H1284       H  0.11870990  0.52433478  0.13791735     0.13500
C1285       C  0.08895958  0.43459833  0.24703629    -0.16100
C1286       C  0.06898881  0.44707580  0.26364179    -0.31300
H1287       H  0.10766562  0.42455417  0.25646891     0.12900
H1288       H  0.05090829  0.45795337  0.25386106     0.13500
C1289       C  0.99444042  0.49422620  0.39544077    -0.16100
C1290       C  0.02139133  0.50400441  0.39827184    -0.31300
H1291       H  0.99116807  0.47148476  0.39080147     0.12900
H1292       H  0.02500028  0.52711990  0.39912607     0.13500
C1293       C  0.88878222  0.51264796  0.12685181    -0.16100
C1294       C  0.89189900  0.48400689  0.13121764    -0.31300
H1295       H  0.87377569  0.52022697  0.11078073     0.12900
H1296       H  0.90859122  0.47627358  0.14542868     0.13500
C1297       C  0.00564788  0.50745725  0.13672951    -0.16100
C1298       C  0.00510496  0.48356967  0.15268296    -0.31300
H1299       H  0.02090083  0.51026219  0.11935514     0.12900
H1300       H  0.98931465  0.48133687  0.16971853     0.13500
C1301       C  0.93611227  0.57568306  0.24902434    -0.16100
C1302       C  0.95525147  0.56294626  0.26620510    -0.31300
H1303       H  0.91692859  0.58551051  0.25780169     0.12900
H1304       H  0.97360391  0.55197170  0.25695637     0.13500
C1305       C  0.00545020  0.61622686  0.38070813    -0.16100
C1306       C  0.03372132  0.61007006  0.38105235    -0.31300
H1307       H  0.99758414  0.63514818  0.39192201     0.12900
H1308       H  0.04131988  0.59001820  0.37179612     0.13500
C1309       C  0.08608829  0.74019499  0.44523974    -0.16100
C1310       C  0.10009458  0.75797470  0.42741144    -0.31300
H1311       H  0.07358508  0.74914877  0.46279480     0.12900
H1312       H  0.11309680  0.74967034  0.40993993     0.13500
C1313       C  0.98950951  0.64273841  0.49296002    -0.16100
C1314       C  0.01388289  0.62769239  0.49499884    -0.31300
H1315       H  0.98667404  0.65785679  0.47544501     0.12900
H1316       H  0.01728585  0.61266806  0.51245345     0.13500
C1317       C  0.00961466  0.86372586  0.51106578    -0.16100
C1318       C  0.01161887  0.84447390  0.48969742    -0.31300
H1319       H  0.02394961  0.88216139  0.51207495     0.12900
H1320       H  0.99749291  0.82584085  0.48913042     0.13500
C1321       C  0.93364617  0.76482933  0.58535328    -0.16100
C1322       C  0.95321623  0.74647286  0.57506905    -0.31300
H1323       H  0.91337935  0.75712541  0.59386310     0.12900
H1324       H  0.97283608  0.75470466  0.56552547     0.13500
C1325       C  0.88886547  0.48118985  0.89929611    -0.16100
C1326       C  0.88838653  0.50975410  0.89367674    -0.31300
H1327       H  0.87740308  0.47283361  0.91778591     0.12900
H1328       H  0.90200431  0.51835154  0.87682896     0.13500
C1329       C  0.95595981  0.42985669  0.76991882    -0.16100
C1330       C  0.93619350  0.41860623  0.75224485    -0.31300
H1331       H  0.97448799  0.44086264  0.76097486     0.12900
H1332       H  0.91794921  0.40679334  0.76067280     0.13500
C1333       C  0.13319425  0.53003600  0.90030233    -0.16100
C1334       C  0.13551182  0.50143338  0.89535284    -0.31300
H1335       H  0.14123161  0.53915480  0.92024819     0.12900
H1336       H  0.12592356  0.49215474  0.87619294     0.13500
C1337       C  0.00731205  0.52230019  0.86312979    -0.16100
C1338       C  0.00883382  0.49823886  0.87884792    -0.31300
H1339       H  0.99004225  0.52493940  0.84774697     0.12900
H1340       H  0.02627911  0.49481264  0.89384373     0.13500
C1341       C  0.02706421  0.62257237  0.62032152    -0.16100
C1342       C  0.99836256  0.62040087  0.62390779    -0.31300
H1343       H  0.03571526  0.63560676  0.60303863     0.12900
H1344       H  0.98971800  0.60537781  0.63951253     0.13500
C1345       C  0.00805791  0.50919730  0.63201470    -0.16100
C1346       C  0.98332202  0.51301183  0.64612652    -0.31300
H1347       H  0.01120284  0.49089611  0.61781024     0.12900
H1348       H  0.98109975  0.53124725  0.66064605     0.13500
C1349       C  0.08062806  0.55822541  0.74771459    -0.16100
C1350       C  0.09235627  0.57870668  0.76439895    -0.31300
H1351       H  0.07048375  0.53963119  0.75756176     0.12900
H1352       H  0.10265263  0.59738627  0.75493423     0.13500
C1353       C  0.98725812  0.39224908  0.37994316    -0.16100
C1354       C  0.01552443  0.38619039  0.37760625    -0.31300
H1355       H  0.97924410  0.41249836  0.37166554     0.12900
H1356       H  0.02396578  0.36701221  0.38775119     0.13500
C1357       C  0.92238157  0.24198418  0.42435735    -0.16100
C1358       C  0.93298915  0.26035779  0.44391350    -0.31300
H1359       H  0.91108204  0.24961992  0.40552509     0.12900
H1360       H  0.94283981  0.25181580  0.46322226     0.13500
C1361       C  0.00714051  0.16148208  0.51561998    -0.16100
C1362       C  0.00014923  0.13956025  0.49816362    -0.31300
H1363       H  0.99803066  0.18266894  0.51215547     0.12900
H1364       H  0.00915373  0.11827714  0.50121074     0.13500
C1365       C  0.02423083  0.39193015  0.62442753    -0.16100
C1366       C  0.99589036  0.38580702  0.62563272    -0.31300
H1367       H  0.03253733  0.41093936  0.63524447     0.12900
H1368       H  0.98741749  0.36753766  0.61373277     0.13500
C1369       C  0.02206457  0.34250729  0.50428961    -0.16100
C1370       C  0.00411300  0.36413248  0.49848187    -0.31300
H1371       H  0.01967540  0.32184839  0.49353256     0.12900
H1372       H  0.00570807  0.38456326  0.50976818     0.13500
C1373       C  0.08604955  0.26111328  0.59823974    -0.16100
C1374       C  0.09990487  0.24173906  0.58204129    -0.31300
H1375       H  0.07190436  0.25418630  0.61542230     0.12900
H1376       H  0.11518044  0.24875658  0.56588806     0.13500
C1377       C  0.12653095  0.11286080  0.49501574    -0.16100
C1378       C  0.12550375  0.10836876  0.52367952    -0.31300
H1379       H  0.11456019  0.13051150  0.48571577     0.12900
H1380       H  0.13646026  0.09005265  0.53295771     0.13500
C1381       C  0.26769373  0.05420413  0.45477269    -0.16100
C1382       C  0.24969191  0.07074736  0.43972112    -0.31300
H1383       H  0.25921178  0.03732799  0.46847599     0.12900
H1384       H  0.25785711  0.08829796  0.42670224     0.13500
C1385       C  0.40124860  0.98897442  0.49979968    -0.16100
C1386       C  0.40338672  0.01594021  0.50994710    -0.31300
H1387       H  0.39760099  0.98591266  0.47691782     0.12900
H1388       H  0.40355263  0.01919086  0.53308042     0.13500
C1389       C  0.13681749  0.88818872  0.51267234    -0.16100
C1390       C  0.13432449  0.89377684  0.48427648    -0.31300
H1391       H  0.12690503  0.86900175  0.52152935     0.12900
H1392       H  0.14233426  0.91402491  0.47584790     0.13500
C1393       C  0.11956928  0.00433757  0.51522755    -0.16100
C1394       C  0.12298054  0.99330620  0.48876784    -0.31300
H1395       H  0.11870437  0.02759631  0.51773575     0.12900
H1396       H  0.12777094  0.97051263  0.48657618     0.13500
C1397       C  0.25328431  0.95352749  0.55761027    -0.16100
C1398       C  0.27124812  0.93686413  0.57250752    -0.31300
H1399       H  0.26172032  0.96879724  0.54212382     0.12900
H1400       H  0.26306954  0.92203559  0.58853628     0.13500
C1401       C  0.38943253  0.98145758  0.39847117    -0.16100
C1402       C  0.38786467  0.01012030  0.39362188    -0.31300
H1403       H  0.37959559  0.97247119  0.41758951     0.12900
H1404       H  0.39921221  0.01938197  0.37549725     0.13500
C1405       C  0.49238877  0.88712530  0.12752708    -0.16100
C1406       C  0.52102973  0.89076352  0.13081494    -0.31300
H1407       H  0.48436110  0.87183323  0.11176262     0.12900
H1408       H  0.52906342  0.90746532  0.14508521     0.13500
C1409       C  0.41320899  0.92648510  0.25196788    -0.16100
C1410       C  0.42867964  0.90828979  0.26766623    -0.31300
H1411       H  0.40052189  0.94287166  0.26272144     0.12900
H1412       H  0.44382589  0.89409240  0.25703536     0.13500
C1413       C  0.50272444  0.99801109  0.34502660    -0.16100
C1414       C  0.51122325  0.01381358  0.36758036    -0.31300
H1415       H  0.50938352  0.00378568  0.32343387     0.12900
H1416       H  0.50455124  0.00833607  0.38922665     0.13500
C1417       C  0.52494545  0.12479999  0.12344497    -0.16100
C1418       C  0.49628818  0.12203219  0.12729630    -0.31300
H1419       H  0.53310220  0.13909698  0.10693981     0.12900
H1420       H  0.48799207  0.10625029  0.14232808     0.13500
C1421       C  0.51669605  0.00949008  0.14975586    -0.16100
C1422       C  0.49847393  0.00469529  0.17146961    -0.31300
H1423       H  0.51346754  0.99955151  0.12886323     0.12900
H1424       H  0.50217139  0.01453488  0.19234186     0.13500
C1425       C  0.59448293  0.08865377  0.24913240    -0.16100
C1426       C  0.59327213  0.06686450  0.26790453    -0.31300
H1427       H  0.59581517  0.11082759  0.25643826     0.12900
H1428       H  0.59140068  0.04492586  0.25993507     0.13500
C1429       C  0.52672744  0.12287410  0.88982229    -0.16100
C1430       C  0.49818258  0.12667799  0.89338082    -0.31300
H1431       H  0.53449453  0.10755612  0.87399875     0.12900
H1432       H  0.49043576  0.14029324  0.91069333     0.13500
C1433       C  0.39055229  0.99477594  0.61974976    -0.16100
C1434       C  0.39084731  0.02355437  0.61554075    -0.31300
H1435       H  0.40231632  0.98567071  0.63762570     0.12900
H1436       H  0.38036675  0.03256813  0.59683193     0.13500
C1437       C  0.40875554  0.09512242  0.74640720    -0.16100
C1438       C  0.42384440  0.11112590  0.76507745    -0.31300
H1439       H  0.39294990  0.07980082  0.75419521     0.12900
H1440       H  0.43872326  0.12742133  0.75745379     0.13500
C1441       C  0.51165649  0.99951711  0.65368160    -0.16100
C1442       C  0.50364912  0.01541675  0.67630983    -0.31300
H1443       H  0.50306607  0.00390900  0.63247865     0.12900
H1444       H  0.51138098  0.01043823  0.69771236     0.13500
C1445       C  0.52063249  0.89099920  0.89097796    -0.16100
C1446       C  0.49198817  0.89484687  0.88941816    -0.31300
H1447       H  0.52931562  0.87523484  0.90572970     0.12900
H1448       H  0.48329214  0.91228133  0.87668833     0.13500
C1449       C  0.51735027  0.00866547  0.85657751    -0.16100
C1450       C  0.50001127  0.01554682  0.83481487    -0.31300
H1451       H  0.51438609  0.01820194  0.87769485     0.12900
H1452       H  0.50340296  0.00657147  0.81352013     0.13500
C1453       C  0.58408728  0.91476902  0.76382467    -0.16100
C1454       C  0.59957547  0.92869786  0.74404721    -0.31300
H1455       H  0.56841535  0.89865532  0.75738987     0.12900
H1456       H  0.61630250  0.94368356  0.75050700     0.13500
C1457       C  0.63157030  0.00013232  0.39913735    -0.16100
C1458       C  0.62902947  0.02858951  0.40494215    -0.31300
H1459       H  0.62247888  0.99142020  0.37947292     0.12900
H1460       H  0.63592036  0.03696237  0.42562301     0.13500
C1461       C  0.88685946  0.88284564  0.49571410    -0.16100
C1462       C  0.89653040  0.89510758  0.52021480    -0.31300
H1463       H  0.88657471  0.85962321  0.49314633     0.12900
H1464       H  0.89550679  0.91834150  0.52272980     0.13500
C1465       C  0.76185811  0.93342454  0.44079312    -0.16100
C1466       C  0.74575092  0.95161983  0.45631136    -0.31300
H1467       H  0.75195430  0.91590461  0.42886974     0.12900
H1468       H  0.75588147  0.96843054  0.46905550     0.13500
C1469       C  0.88169136  0.11653896  0.49146003    -0.16100
C1470       C  0.88293194  0.12279302  0.51989300    -0.31300
H1471       H  0.86920208  0.09817654  0.48412329     0.12900
H1472       H  0.89707406  0.13980548  0.52744536     0.13500
C1473       C  0.85623527  0.99574119  0.53016624    -0.16100
C1474       C  0.86947195  0.99884052  0.50485930    -0.31300
H1475       H  0.84207138  0.97752257  0.53389515     0.12900
H1476       H  0.88321056  0.01725937  0.50059900     0.13500
C1477       C  0.62582516  0.01505312  0.61604886    -0.16100
C1478       C  0.62487843  0.98640457  0.61090574    -0.31300
H1479       H  0.61511146  0.02392043  0.63478102     0.12900
H1480       H  0.63399325  0.97770449  0.59126405     0.13500
C1481       C  0.60509551  0.01800872  0.50135985    -0.16100
C1482       C  0.60610925  0.99183692  0.51347281    -0.31300
H1483       H  0.60657371  0.01928051  0.47809128     0.12900
H1484       H  0.60764345  0.99069451  0.53674287     0.13500
C1485       C  0.74103846  0.06334584  0.55962519    -0.16100
C1486       C  0.75726293  0.08021962  0.57659167    -0.31300
H1487       H  0.75107429  0.04698455  0.54632023     0.12900
H1488       H  0.74766201  0.09740454  0.58912934     0.13500
C1489       C  0.04487031  0.85649516  0.35351129    -0.13000
C1490       C  0.03353814  0.85666576  0.33004406    -0.14500
C1491       C  0.11161874  0.92801956  0.25534254    -0.13100
C1492       C  0.10538481  0.95527442  0.26726689     0.09100
C1493       C  0.07772354  0.95972277  0.27811159    -0.13100
C1494       C  0.05685054  0.93833452  0.27642735    -0.13100
C1495       C  0.06262645  0.91144939  0.26393314     0.09100
C1496       C  0.09051305  0.90646129  0.25362376    -0.13100
H1497       H  0.13283316  0.92300993  0.24755328     0.13100
H1498       H  0.07156299  0.97979559  0.28780612     0.13100
H1499       H  0.03615452  0.94339375  0.28507234     0.13100
H1500       H  0.09631532  0.88573750  0.24477133     0.13100
C1501       C  0.15499741  0.02808285  0.35551702    -0.13000
C1502       C  0.15472015  0.01978280  0.33085861    -0.14500
C1503       C  0.08485292  0.10385108  0.26834763    -0.13100
C1504       C  0.05609390  0.09514707  0.27143619     0.09100
C1505       C  0.04972292  0.06565739  0.27117651    -0.13100
C1506       C  0.07145017  0.04531316  0.26813568    -0.13100
C1507       C  0.10012413  0.05389355  0.26529295     0.09100
C1508       C  0.10667713  0.08339590  0.26530628    -0.13100
H1509       H  0.09044970  0.12647232  0.26836467     0.13100
H1510       H  0.02784036  0.05824658  0.27225588     0.13100
H1511       H  0.06570061  0.02283446  0.26737120     0.13100
H1512       H  0.12868816  0.09058127  0.26350836     0.13100
C1513       C  0.97513819  0.14275583  0.35629085    -0.13000
C1514       C  0.98606232  0.14261582  0.33260674    -0.14500
C1515       C  0.94187690  0.03966778  0.28353996    -0.13100
C1516       C  0.91482485  0.04334154  0.27092387     0.09100
C1517       C  0.90976582  0.06952112  0.25643390    -0.13100
C1518       C  0.93112090  0.09066621  0.25411102    -0.13100
C1519       C  0.95827566  0.08663732  0.26640561     0.09100
C1520       C  0.96314081  0.06075158  0.28120920    -0.13100
H1521       H  0.94725316  0.02047413  0.29516900     0.13100
H1522       H  0.88923280  0.07431035  0.24703112     0.13100
H1523       H  0.92587807  0.11049193  0.24329159     0.13100
H1524       H  0.98340869  0.05620568  0.29117087     0.13100
C1525       C  0.94744919  0.95394000  0.27087721    -0.13100
C1526       C  0.91904986  0.94530567  0.26609579     0.09100
C1527       C  0.91313074  0.91586063  0.26254329    -0.13100
C1528       C  0.93526283  0.89554160  0.26415784    -0.13100
C1529       C  0.96378542  0.90427202  0.26925218     0.09100
C1530       C  0.96943545  0.93374748  0.27244877    -0.13100
H1531       H  0.95281762  0.97645729  0.27299467     0.13100
H1532       H  0.89135031  0.90851683  0.25920040     0.13100
H1533       H  0.92997958  0.87298068  0.26169681     0.13100
H1534       H  0.99094203  0.94147592  0.27536170     0.13100
C1535       C  0.86512056  0.97716487  0.33426894    -0.13000
C1536       C  0.86405531  0.96789786  0.35853226    -0.14500
C1537       C  0.15171206  0.36092558  0.98274273    -0.13000
C1538       C  0.15157023  0.33611264  0.99072029    -0.14500
C1539       C  0.01281738  0.23113265  0.21765665    -0.13100
C1540       C  0.01458628  0.22386455  0.18826399     0.09100
C1541       C  0.01163527  0.19457257  0.18088453    -0.13100
C1542       C  0.00761829  0.17338836  0.20188153    -0.13100
C1543       C  0.00563158  0.18054001  0.23122890     0.09100
C1544       C  0.00851543  0.20987102  0.23873633    -0.13100
H1545       H  0.01415225  0.25323395  0.22469759     0.13100
H1546       H  0.01231095  0.18800582  0.15857148     0.13100
H1547       H  0.00620627  0.15111862  0.19511845     0.13100
H1548       H  0.00812284  0.21670661  0.26088893     0.13100
C1549       C  0.08998586  0.25408258  0.10099909    -0.13100
C1550       C  0.06101818  0.25882982  0.09479706     0.09100
C1551       C  0.05346473  0.26735612  0.06689539    -0.13100
C1552       C  0.07437629  0.27153505  0.04578182    -0.13100
C1553       C  0.10346016  0.26735630  0.05206569     0.09100
C1554       C  0.11095755  0.25845390  0.07997349    -0.13100
H1555       H  0.09657149  0.24807503  0.12242461     0.13100
H1556       H  0.03132255  0.27068531  0.06126788     0.13100
H1557       H  0.06759411  0.27750034  0.02442078     0.13100
H1558       H  0.13312676  0.25534413  0.08586548     0.13100
C1559       C  0.03672442  0.32497743  0.15020176    -0.13000
C1560       C  0.04824137  0.34846687  0.14921681    -0.14500
C1561       C  0.94669497  0.27529358  0.05440008    -0.13100
C1562       C  0.92064872  0.26089084  0.05937742     0.09100
C1563       C  0.91594822  0.24954028  0.08693202    -0.13100
C1564       C  0.93694246  0.25199213  0.10839768    -0.13100
C1565       C  0.96352653  0.26561725  0.10293482     0.09100
C1566       C  0.96756607  0.27767864  0.07564771    -0.13100
H1567       H  0.95160737  0.28484701  0.03402284     0.13100
H1568       H  0.89585570  0.23920470  0.09224831     0.13100
H1569       H  0.93194418  0.24318076  0.12921904     0.13100
H1570       H  0.98695698  0.28880638  0.06994927     0.13100
C1571       C  0.86482278  0.32512623  0.02918916    -0.13000
C1572       C  0.86378443  0.34872460  0.04033085    -0.14500
C1573       C  0.06259765  0.29126405  0.92731519    -0.13100
C1574       C  0.05618286  0.26573870  0.91248026     0.09100
C1575       C  0.07243118  0.24101919  0.91839830    -0.13100
C1576       C  0.09427812  0.24173787  0.93895140    -0.13100
C1577       C  0.10051870  0.26721717  0.95406656     0.09100
C1578       C  0.08459207  0.29205782  0.94768619    -0.13100
H1579       H  0.05093411  0.31082285  0.92286930     0.13100
H1580       H  0.06778426  0.22082984  0.90770684     0.13100
H1581       H  0.10576128  0.22209467  0.94345105     0.13100
H1582       H  0.08927395  0.31237936  0.95805461     0.13100
C1583       C  0.92884079  0.25548912  0.91067817    -0.13100
C1584       C  0.95794095  0.25887328  0.91753349     0.09100
C1585       C  0.96556299  0.26484137  0.94606624    -0.13100
C1586       C  0.94463864  0.26739985  0.96732668    -0.13100
C1587       C  0.91551177  0.26412120  0.96071009     0.09100
C1588       C  0.90782849  0.25816320  0.93203842    -0.13100
H1589       H  0.92230282  0.25150982  0.88872435     0.13100
H1590       H  0.98785046  0.26727916  0.95205751     0.13100
H1591       H  0.95148839  0.27105087  0.98906345     0.13100
H1592       H  0.88555205  0.25571669  0.92606709     0.13100
C1593       C  0.97909373  0.35094225  0.86721753    -0.13000
C1594       C  0.98902270  0.32693425  0.86614035    -0.14500
C1595       C  0.20695100  0.18457953  0.00861772    -0.13100
C1596       C  0.23605151  0.19219659  0.01085004     0.09100
C1597       C  0.24325146  0.22163512  0.00870459    -0.13100
C1598       C  0.22190865  0.24264176  0.00492661    -0.13100
C1599       C  0.19274520  0.23480235  0.00298754     0.09100
C1600       C  0.18582489  0.20536685  0.00477971    -0.13100
H1601       H  0.20051442  0.16219127  0.00948012     0.13100
H1602       H  0.26528485  0.22870009  0.00932334     0.13100
H1603       H  0.22855421  0.26486423  0.00391260     0.13100
H1604       H  0.16369073  0.19840743  0.00358918     0.13100
C1605       C  0.36054629  0.15323663  0.03926860    -0.13000
C1606       C  0.33696655  0.15324260  0.02830390    -0.14500
C1607       C  0.20517576  0.00449895  0.17759432    -0.13100
C1608       C  0.23447030  0.00243818  0.18435459     0.09100
C1609       C  0.24220839  0.00317339  0.21361500    -0.13100
C1610       C  0.22127728  0.00559435  0.23522959    -0.13100
C1611       C  0.19191901  0.00748835  0.22829655     0.09100
C1612       C  0.18437661  0.00674980  0.19906449    -0.13100
H1613       H  0.19831361  0.00442477  0.15539204     0.13100
H1614       H  0.26432804  0.00228129  0.22019398     0.13100
H1615       H  0.22844993  0.00543370  0.25722561     0.13100
H1616       H  0.16207930  0.00775803  0.19277405     0.13100
C1617       C  0.24596653  0.06762391  0.09077140    -0.13100
C1618       C  0.27178179  0.05358472  0.09743719     0.09100
C1619       C  0.29690857  0.06212252  0.08339728    -0.13100
C1620       C  0.29638707  0.08446729  0.06343476    -0.13100
C1621       C  0.27058795  0.09847942  0.05654123     0.09100
C1622       C  0.24536202  0.08977897  0.07051031    -0.13100
H1623       H  0.22608241  0.06111747  0.10083705     0.13100
H1624       H  0.31714576  0.05199540  0.08834555     0.13100
H1625       H  0.31649106  0.09107077  0.05396446     0.13100
H1626       H  0.22507398  0.09975738  0.06551124     0.13100
C1627       C  0.35817593  0.97438450  0.14389780    -0.13000
C1628       C  0.33472755  0.98551490  0.14351570    -0.14500
C1629       C  0.24656560  0.07824473  0.92444984    -0.13100
C1630       C  0.27154526  0.06433994  0.91516603     0.09100
C1631       C  0.29785716  0.07208537  0.92793701    -0.13100
C1632       C  0.29906947  0.09264123  0.94988980    -0.13100
C1633       C  0.27410674  0.10635289  0.95925090     0.09100
C1634       C  0.24783363  0.09902834  0.94623405    -0.13100
H1635       H  0.22596469  0.07265399  0.91532326     0.13100
H1636       H  0.31774409  0.06261733  0.92076727     0.13100
H1637       H  0.31961244  0.09812988  0.95923448     0.13100
H1638       H  0.22809052  0.10888185  0.95337359     0.13100
C1639       C  0.36073003  0.04523668  0.86239983    -0.13000
C1640       C  0.33711869  0.03418493  0.86205466    -0.14500
C1641       C  0.24402148  0.92186764  0.05939130    -0.13100
C1642       C  0.27036557  0.91393332  0.04701339     0.09100
C1643       C  0.29563319  0.92648905  0.05730258    -0.13100
C1644       C  0.29466516  0.94673423  0.07942745    -0.13100
C1645       C  0.26835291  0.95518735  0.09147380     0.09100
C1646       C  0.24302492  0.94233517  0.08145011    -0.13100
H1647       H  0.22413109  0.91272773  0.05157396     0.13100
H1648       H  0.31621101  0.92034026  0.04853621     0.13100
H1649       H  0.31468528  0.95550135  0.08727504     0.13100
H1650       H  0.22245935  0.94856171  0.09018514     0.13100
C1651       C  0.24698596  0.92845923  0.93425054    -0.13100
C1652       C  0.27168202  0.91996591  0.94903980     0.09100
C1653       C  0.29764865  0.93443413  0.94322413    -0.13100
C1654       C  0.29876694  0.95704939  0.92346507    -0.13100
C1655       C  0.27406083  0.96546463  0.90869441     0.09100
C1656       C  0.24814894  0.95091811  0.91438394    -0.13100
H1657       H  0.22657850  0.91819683  0.93846149     0.13100
H1658       H  0.31736119  0.92805774  0.95353297     0.13100
H1659       H  0.31909165  0.96752981  0.91934002     0.13100
H1660       H  0.22850138  0.95727282  0.90390105     0.13100
C1661       C  0.33653694  0.86618784  0.98505918    -0.13000
C1662       C  0.36088774  0.86567361  0.97612443    -0.14500
C1663       C  0.86290111  0.04147783  0.66099970    -0.13000
C1664       C  0.86403231  0.03011901  0.68436944    -0.14500
C1665       C  0.01242726  0.21393269  0.77368176    -0.13100
C1666       C  0.01395862  0.18439231  0.78025270     0.09100
C1667       C  0.01210592  0.17645171  0.80933414    -0.13100
C1668       C  0.00875536  0.19702239  0.83101068    -0.13100
C1669       C  0.00685191  0.22650845  0.82462823     0.09100
C1670       C  0.00901729  0.23466612  0.79552882    -0.13100
H1671       H  0.01328218  0.22132521  0.75177195     0.13100
H1672       H  0.01282086  0.15396931  0.81530811     0.13100
H1673       H  0.00769793  0.18982355  0.85306656     0.13100
H1674       H  0.00851758  0.25697364  0.78928054     0.13100
C1675       C  0.93405461  0.10627932  0.74998466    -0.13100
C1676       C  0.96236375  0.09805186  0.74347686     0.09100
C1677       C  0.96875372  0.06869899  0.74162119    -0.13100
C1678       C  0.94743969  0.04803523  0.74573045    -0.13100
C1679       C  0.91912933  0.05615864  0.75155738     0.09100
C1680       C  0.91262871  0.08549115  0.75402963    -0.13100
H1681       H  0.92839121  0.12878268  0.75158281     0.13100
H1682       H  0.99036911  0.06157309  0.73778218     0.13100
H1683       H  0.95317298  0.02562510  0.74446073     0.13100
H1684       H  0.89084828  0.09233462  0.75807358     0.13100
C1685       C  0.02906884  0.14575379  0.67850370    -0.13000
C1686       C  0.04028938  0.14457936  0.65510400    -0.14500
C1687       C  0.22246155  0.00816844  0.77201409    -0.13100
C1688       C  0.19324795  0.00502900  0.77932656     0.09100
C1689       C  0.18589608  0.00802568  0.80851629    -0.13100
C1690       C  0.20676036  0.01319614  0.82956482    -0.13100
C1691       C  0.23598401  0.01593600  0.82243847     0.09100
C1692       C  0.24343893  0.01344028  0.79317642    -0.13100
H1693       H  0.22946978  0.00701076  0.74998217     0.13100
H1694       H  0.16370826  0.00639508  0.81511348     0.13100
H1695       H  0.20005775  0.01454241  0.85178557     0.13100
H1696       H  0.26547990  0.01481185  0.78633439     0.13100
C1697       C  0.07803696  0.04575840  0.72583989    -0.13100
C1698       C  0.10566099  0.05119193  0.73658188     0.09100
C1699       C  0.11129378  0.07886381  0.74785866    -0.13100
C1700       C  0.08956845  0.09943403  0.75022433    -0.13100
C1701       C  0.06150007  0.09316120  0.74122662     0.09100
C1702       C  0.05634604  0.06624268  0.72830312    -0.13100
H1703       H  0.07251381  0.02553455  0.71596098     0.13100
H1704       H  0.13247600  0.08494645  0.75498846     0.13100
H1705       H  0.09500854  0.12037276  0.75887196     0.13100
H1706       H  0.03546768  0.06037818  0.72036450     0.13100
C1707       C  0.15696982  0.97516644  0.65281907    -0.13000
C1708       C  0.15651717  0.98379447  0.67744889    -0.14500
C1709       C  0.05122428  0.94120704  0.73955958    -0.13100
C1710       C  0.05720682  0.91185273  0.74255981     0.09100
C1711       C  0.08573126  0.90359023  0.74793984    -0.13100
C1712       C  0.10764343  0.92427119  0.74991931    -0.13100
C1713       C  0.10147278  0.95358567  0.74644908     0.09100
C1714       C  0.07301689  0.96174533  0.74154893    -0.13100
H1715       H  0.02960543  0.94852611  0.73645313     0.13100
H1716       H  0.09120305  0.88111623  0.75026134     0.13100
H1717       H  0.12947104  0.91731503  0.75335995     0.13100
H1718       H  0.06746675  0.98414024  0.73963346     0.13100
C1719       C  0.96288382  0.94364984  0.73316839    -0.13100
C1720       C  0.95799690  0.91688150  0.74620741     0.09100
C1721       C  0.93033707  0.91100932  0.75664563    -0.13100
C1722       C  0.90858010  0.93158364  0.75464811    -0.13100
C1723       C  0.91382296  0.95883413  0.74233011     0.09100
C1724       C  0.94122750  0.96406957  0.73104441    -0.13100
H1725       H  0.98348768  0.94939331  0.72456360     0.13100
H1726       H  0.92515290  0.89031205  0.76584860     0.13100
H1727       H  0.88767144  0.92569368  0.76265682     0.13100
H1728       H  0.94663223  0.98401994  0.72075383     0.13100
C1729       C  0.99034331  0.86361978  0.67984755    -0.13000
C1730       C  0.98052616  0.86343393  0.65579961    -0.14500
C1731       C  0.00963279  0.77431937  0.79481609    -0.13100
C1732       C  0.01289206  0.78175597  0.82401274     0.09100
C1733       C  0.01257997  0.81115545  0.83130476    -0.13100
C1734       C  0.00965344  0.83232544  0.81030334    -0.13100
C1735       C  0.00654805  0.82504035  0.78111274     0.09100
C1736       C  0.00660097  0.79559677  0.77371027    -0.13100
H1737       H  0.00870517  0.75214912  0.78795036     0.13100
H1738       H  0.01439427  0.81780688  0.85353154     0.13100
H1739       H  0.00995702  0.85469377  0.81689712     0.13100
H1740       H  0.00462239  0.78855266  0.75173191     0.13100
C1741       C  0.04090847  0.65707239  0.86159678    -0.13000
C1742       C  0.02951107  0.68043953  0.86146651    -0.14500
C1743       C  0.18454618  0.81195951  0.99977881    -0.13100
C1744       C  0.19219679  0.78321604  0.00530832     0.09100
C1745       C  0.22164717  0.77655325  0.00570451    -0.13100
C1746       C  0.24252900  0.79791182  0.00103139    -0.13100
C1747       C  0.23474885  0.82666638  0.99550039     0.09100
C1748       C  0.20533617  0.83319606  0.99499785    -0.13100
H1749       H  0.16218198  0.81799787  0.99898739     0.13100
H1750       H  0.22901751  0.75495029  0.00945229     0.13100
H1751       H  0.26469289  0.79167788  0.00271569     0.13100
H1752       H  0.19838672  0.85510922  0.99153529     0.13100
C1753       C  0.05699587  0.72986217  0.94115532    -0.13100
C1754       C  0.06134554  0.74459787  0.91518847     0.09100
C1755       C  0.08866746  0.75627285  0.90996935    -0.13100
C1756       C  0.11052458  0.75401001  0.93038497    -0.13100
C1757       C  0.10579779  0.74016755  0.95692530     0.09100
C1758       C  0.07880238  0.72752756  0.96146333    -0.13100
H1759       H  0.03667516  0.72037065  0.94652114     0.13100
H1760       H  0.09357885  0.76682530  0.88992298     0.13100
H1761       H  0.13105278  0.76320009  0.92491502     0.13100
H1762       H  0.07368888  0.71624446  0.98095617     0.13100
C1763       C  0.15546408  0.68135047  0.02628145    -0.13000
C1764       C  0.15532035  0.65696803  0.03540990    -0.14500
C1765       C  0.01121246  0.76785004  0.21378659    -0.13100
C1766       C  0.00768299  0.77549264  0.18470094     0.09100
C1767       C  0.00811908  0.80499967  0.17798742    -0.13100
C1768       C  0.01132050  0.82601686  0.19936970    -0.13100
C1769       C  0.01467150  0.81853662  0.22844555     0.09100
C1770       C  0.01455154  0.78898412  0.23527949    -0.13100
H1771       H  0.01207377  0.74561443  0.22025818     0.13100
H1772       H  0.00616123  0.81187406  0.15589564     0.13100
H1773       H  0.01103858  0.84843840  0.19314968     0.13100
H1774       H  0.01667065  0.78177670  0.25714541     0.13100
C1775       C  0.07193194  0.74189317  0.04663234    -0.13100
C1776       C  0.10030427  0.74817463  0.05445977     0.09100
C1777       C  0.10712862  0.75044245  0.08369834    -0.13100
C1778       C  0.08599957  0.74606187  0.10464411    -0.13100
C1779       C  0.05755945  0.73947544  0.09679359     0.09100
C1780       C  0.05083183  0.73761694  0.06750043    -0.13100
H1781       H  0.06599349  0.74036549  0.02424521     0.13100
H1782       H  0.12896342  0.75464236  0.09034644     0.13100
H1783       H  0.09201979  0.74753887  0.12704141     0.13100
H1784       H  0.02915223  0.73356835  0.06060268     0.13100
C1785       C  0.98113396  0.64989734  0.14703649    -0.13000
C1786       C  0.99167438  0.67379645  0.14592012    -0.14500
C1787       C  0.94188045  0.72362027  0.04511400    -0.13100
C1788       C  0.91487182  0.73607602  0.04984133     0.09100
C1789       C  0.91011822  0.74931198  0.07676991    -0.13100
C1790       C  0.93180326  0.75101217  0.09748482    -0.13100
C1791       C  0.95905927  0.73936247  0.09225452     0.09100
C1792       C  0.96350709  0.72533511  0.06580021    -0.13100
H1793       H  0.94699215  0.71272241  0.02536561     0.13100
H1794       H  0.88960902  0.75833475  0.08240482     0.13100
H1795       H  0.92678223  0.76103782  0.11782975     0.13100
H1796       H  0.98377285  0.71572915  0.06043494     0.13100
C1797       C  0.94644041  0.73997238  0.96021048    -0.13100
C1798       C  0.91803814  0.74585679  0.95243359     0.09100
C1799       C  0.91182533  0.75110043  0.92343205    -0.13100
C1800       C  0.93357015  0.74968514  0.90263961    -0.13100
C1801       C  0.96197737  0.74310506  0.91046820     0.09100
C1802       C  0.96808137  0.73857673  0.93956447    -0.13100
H1803       H  0.95206991  0.73662775  0.98240928     0.13100
H1804       H  0.89006644  0.75538583  0.91672907     0.13100
H1805       H  0.92799990  0.75323664  0.88039546     0.13100
H1806       H  0.98965820  0.73454123  0.94660346     0.13100
C1807       C  0.86481111  0.67529226  0.98205447    -0.13000
C1808       C  0.86406744  0.65097097  0.97249975    -0.14500
C1809       C  0.77500253  0.78848033  0.01059578    -0.13100
C1810       C  0.78195309  0.81785273  0.01376579     0.09100
C1811       C  0.81108370  0.82568672  0.01212409    -0.13100
C1812       C  0.83241968  0.80516713  0.00739548    -0.13100
C1813       C  0.82565292  0.77584765  0.00377672     0.09100
C1814       C  0.79649430  0.76780851  0.00576671    -0.13100
H1815       H  0.75300526  0.78126721  0.01102243     0.13100
H1816       H  0.81736136  0.84807273  0.01393381     0.13100
H1817       H  0.85451594  0.81228080  0.00653640     0.13100
H1818       H  0.78988636  0.74563390  0.00391072     0.13100
C1819       C  0.68087956  0.85665503  0.03164467    -0.13000
C1820       C  0.65764361  0.85685486  0.04336107    -0.14500
C1821       C  0.81287981  0.00042408  0.18291297    -0.13100
C1822       C  0.78378123  0.00320237  0.19030449     0.09100
C1823       C  0.77638228  0.00107043  0.21956618    -0.13100
C1824       C  0.79747905  0.99651815  0.24061952    -0.13100
C1825       C  0.82663251  0.99378561  0.23305325     0.09100
C1826       C  0.83381673  0.99592628  0.20380165    -0.13100
H1827       H  0.81944981  0.00145352  0.16063937     0.13100
H1828       H  0.75436975  0.00236714  0.22648698     0.13100
H1829       H  0.79063446  0.99572637  0.26271492     0.13100
H1830       H  0.85597069  0.99443986  0.19707484     0.13100
C1831       C  0.77049291  0.94019509  0.09641798    -0.13100
C1832       C  0.74470875  0.95421148  0.10328705     0.09100
C1833       C  0.71958285  0.94594179  0.08901697    -0.13100
C1834       C  0.72022373  0.92406816  0.06830836    -0.13100
C1835       C  0.74613233  0.91033591  0.06105808     0.09100
C1836       C  0.77120325  0.91856812  0.07554368    -0.17900
H1837       H  0.79036453  0.94644382  0.10668358     0.13100
H1838       H  0.69936465  0.95605868  0.09418248     0.13100
H1839       H  0.70024488  0.91771841  0.05837385     0.13100
H1840       H  0.79154519  0.90875251  0.07035995     0.13100
C1841       C  0.68330196  0.02280971  0.15076583    -0.13000
C1842       C  0.65985291  0.03390444  0.15019636    -0.14500
C1843       C  0.81520948  0.17264801  0.00652347    -0.13100
C1844       C  0.78618280  0.17987385  0.00265552     0.09100
C1845       C  0.77916803  0.20928809  0.00136695    -0.13100
C1846       C  0.80036055  0.23060258  0.00470315    -0.13100
C1847       C  0.82923752  0.22326226  0.00976683     0.09100
C1848       C  0.83629569  0.19386681  0.00981056    -0.13100
H1849       H  0.82154979  0.15028255  0.00750293     0.13100
H1850       H  0.75739585  0.21624582  0.99820545     0.13100
H1851       H  0.79385206  0.25275482  0.00273562     0.13100
H1852       H  0.85833778  0.18723490  0.01246644     0.13100
C1853       C  0.77424439  0.08631158  0.06745757    -0.13100
C1854       C  0.74788065  0.09512909  0.05589936     0.09100
C1855       C  0.72248884  0.08320151  0.06654347    -0.13100
C1856       C  0.72339557  0.06252245  0.08815526    -0.13100
C1857       C  0.74975447  0.05300145  0.09920194     0.09100
C1858       C  0.77518047  0.06538792  0.08892113    -0.13100
H1859       H  0.79418132  0.09498936  0.05927537     0.13100
H1860       H  0.70194463  0.08997745  0.05822723     0.13100
H1861       H  0.70334775  0.05408549  0.09625330     0.13100
H1862       H  0.79576167  0.05837224  0.09691234     0.13100
C1863       C  0.66085650  0.13928623  0.97775254    -0.13000
C1864       C  0.68463281  0.13966389  0.98817211    -0.14500
C1865       C  0.81357566  0.99687322  0.83455737    -0.13100
C1866       C  0.78435103  0.99505750  0.82729307     0.09100
C1867       C  0.77691168  0.99840609  0.79816252    -0.13100
C1868       C  0.79792622  0.00374238  0.77723407    -0.13100
C1869       C  0.82709801  0.00618038  0.78471387     0.09100
C1870       C  0.83447857  0.00232561  0.81373691    -0.13100
H1871       H  0.82021826  0.99466877  0.85670813     0.13100
H1872       H  0.75493372  0.99753257  0.79115404     0.13100
H1873       H  0.79096024  0.00540039  0.75524158     0.13100
H1874       H  0.85670227  0.00331759  0.82032078     0.13100
C1875       C  0.72293506  0.05223681  0.92926460    -0.13100
C1876       C  0.74806813  0.04229607  0.91628131     0.09100
C1877       C  0.77454206  0.05420549  0.92468194    -0.13100
C1878       C  0.77578535  0.07587923  0.94551517    -0.13100
C1879       C  0.75057937  0.08603202  0.95833860     0.09100
C1880       C  0.72415190  0.07400494  0.94995491    -0.13100
H1881       H  0.70228163  0.04368476  0.92291507     0.13100
H1882       H  0.79435052  0.04651615  0.91536502     0.13100
H1883       H  0.79644502  0.08445817  0.95179774     0.13100
H1884       H  0.70423315  0.08182764  0.95886314     0.13100
C1885       C  0.72060875  0.93744797  0.93093955    -0.13100
C1886       C  0.74685363  0.94412800  0.91748893     0.09100
C1887       C  0.77153384  0.92945062  0.92617270    -0.13100
C1888       C  0.77013814  0.90925409  0.94831834    -0.13100
C1889       C  0.74401352  0.90319868  0.96229106     0.09100
C1890       C  0.71926453  0.91743983  0.95325530    -0.13100
H1891       H  0.70090290  0.94750546  0.92416600     0.13100
H1892       H  0.79209220  0.93418359  0.91649902     0.13100
H1893       H  0.78976988  0.89897953  0.95504137     0.13100
H1894       H  0.69878396  0.91285166  0.96317255     0.13100
C1895       C  0.68227328  0.98153337  0.86502910    -0.13000
C1896       C  0.65787292  0.97265042  0.86381576    -0.14500
C1897       C  0.83193439  0.47673995  0.65225384    -0.13000
C1898       C  0.85574636  0.46654938  0.65299570    -0.14500
C1899       C  0.79552195  0.42091613  0.56229765    -0.13100
C1900       C  0.77049648  0.40950676  0.55022924     0.09100
C1901       C  0.74379091  0.41841597  0.56112601    -0.13100
C1902       C  0.74216694  0.43838014  0.58366420    -0.13100
C1903       C  0.76723018  0.44980853  0.59580305     0.09100
C1904       C  0.79391884  0.44063713  0.58499434    -0.13100
H1905       H  0.81631910  0.41411603  0.55458650     0.13100
H1906       H  0.72410159  0.41018675  0.55191391     0.13100
H1907       H  0.72135033  0.44521495  0.59126057     0.13100
H1908       H  0.81372769  0.44836511  0.59432045     0.13100
C1909       C  0.83516226  0.36093790  0.48412508    -0.13000
C1910       C  0.85864748  0.36110176  0.47297686    -0.14500
C1911       C  0.74790986  0.44457729  0.41613490    -0.13100
C1912       C  0.77380121  0.45911916  0.41040996     0.09100
C1913       C  0.79855152  0.45061810  0.42508979    -0.13100
C1914       C  0.79735746  0.42839384  0.44529109    -0.13100
C1915       C  0.77127389  0.41440313  0.45164855     0.09100
C1916       C  0.74665974  0.42254424  0.43648190    -0.13100
H1917       H  0.72829161  0.45081664  0.40552837     0.13100
H1918       H  0.81891761  0.46093119  0.42076290     0.13100
H1919       H  0.81705095  0.42209100  0.45568305     0.13100
H1920       H  0.72619585  0.41248415  0.44087574     0.13100
C1921       C  0.86241332  0.53435359  0.36417464    -0.13000
C1922       C  0.83776096  0.52609988  0.36471857    -0.14500
C1923       C  0.79725712  0.58446189  0.45607534    -0.13100
C1924       C  0.77252609  0.59949306  0.46400752     0.09100
C1925       C  0.74702360  0.59403868  0.44867556    -0.13100
C1926       C  0.74621677  0.57367718  0.42636626    -0.13100
C1927       C  0.77092885  0.55828777  0.41865395     0.09100
C1928       C  0.79655933  0.56441290  0.43355759    -0.13100
H1929       H  0.81733903  0.58851755  0.46698589     0.13100
H1930       H  0.72738420  0.60492868  0.45442960     0.13100
H1931       H  0.72605564  0.56958547  0.41563846     0.13100
H1932       H  0.81643323  0.55411278  0.42768450     0.13100
C1933       C  0.76281737  0.59724206  0.59140502    -0.13100
C1934       C  0.76733047  0.59102905  0.56223608     0.09100
C1935       C  0.77433869  0.56272865  0.55427884    -0.13100
C1936       C  0.77664644  0.54109266  0.57494596    -0.13100
C1937       C  0.77215507  0.54721065  0.60417580     0.09100
C1938       C  0.76532785  0.57563731  0.61213968    -0.13100
H1939       H  0.75807743  0.61897741  0.59829434     0.13100
H1940       H  0.77770946  0.55718364  0.53194345     0.13100
H1941       H  0.78116044  0.51941008  0.56779432     0.13100
H1942       H  0.76208189  0.58129540  0.63445064     0.13100
C1943       C  0.85906959  0.64525580  0.54407981    -0.13000
C1944       C  0.83500588  0.64473014  0.53424116    -0.14500
C1945       C  0.52574934  0.36123915  0.83318088    -0.13000
C1946       C  0.53739998  0.36281942  0.85637098    -0.14500
C1947       C  0.40731427  0.42108941  0.76189404    -0.13100
C1948       C  0.41430265  0.45039591  0.76492471     0.09100
C1949       C  0.44277476  0.45796890  0.77059188    -0.13100
C1950       C  0.46378958  0.43709013  0.77357042    -0.13100
C1951       C  0.45717394  0.40784619  0.77073412     0.09100
C1952       C  0.42858677  0.39997286  0.76476808    -0.13100
H1953       H  0.38541363  0.41451418  0.75786511     0.13100
H1954       H  0.44912116  0.48020226  0.77209545     0.13100
H1955       H  0.48542984  0.44413690  0.77698852     0.13100
H1956       H  0.42264122  0.37755207  0.76248643     0.13100
C1957       C  0.36204169  0.48717751  0.83111144    -0.13000
C1958       C  0.36200457  0.47884896  0.85575279    -0.14500
C1959       C  0.46144373  0.56524807  0.77451213    -0.13100
C1960       C  0.45608611  0.59230104  0.76231979     0.09100
C1961       C  0.42831046  0.59786131  0.75219069    -0.13100
C1962       C  0.40672660  0.57681847  0.75418421    -0.13100
C1963       C  0.41236518  0.54956907  0.76629748     0.09100
C1964       C  0.44001220  0.54453361  0.77674004    -0.13100
H1965       H  0.48220014  0.55959481  0.78269358     0.13100
H1966       H  0.42296076  0.61868458  0.74342411     0.13100
H1967       H  0.38558024  0.58231748  0.74663310     0.13100
H1968       H  0.44568910  0.52455952  0.78672618     0.13100
C1969       C  0.47922904  0.64459965  0.85492242    -0.13000
C1970       C  0.48871551  0.64513961  0.83067376    -0.14500
C1971       C  0.71725364  0.50124715  0.74032033    -0.13100
C1972       C  0.68813602  0.50430912  0.73307061     0.09100
C1973       C  0.68085621  0.50274445  0.70372655    -0.13100
C1974       C  0.70178180  0.49904218  0.68245691    -0.13100
C1975       C  0.73091330  0.49602741  0.68954726     0.09100
C1976       C  0.73825385  0.49723920  0.71897069    -0.13100
H1977       H  0.72410480  0.50147756  0.76243579     0.13100
H1978       H  0.65868222  0.50442990  0.69716446     0.13100
H1979       H  0.69516647  0.49874122  0.66018378     0.13100
H1980       H  0.76021727  0.49581222  0.72592639     0.13100
C1981       C  0.57226691  0.46200205  0.78304575    -0.13100
C1982       C  0.60021691  0.45634016  0.77351931     0.09100
C1983       C  0.60603004  0.42862656  0.76251407    -0.13100
C1984       C  0.58429156  0.40788766  0.75996387    -0.13100
C1985       C  0.55616681  0.41399329  0.76880670     0.09100
C1986       C  0.55078951  0.44116942  0.78095111    -0.13100
H1987       H  0.56635039  0.48271448  0.79162788     0.13100
H1988       H  0.62737098  0.42265608  0.75586177     0.13100
H1989       H  0.58978610  0.38687384  0.75161842     0.13100
H1990       H  0.52993809  0.44693478  0.78874262     0.13100
C1991       C  0.56805706  0.54576475  0.76306553    -0.13100
C1992       C  0.59689077  0.55384360  0.76557696     0.09100
C1993       C  0.60399391  0.58297079  0.76905537    -0.13100
C1994       C  0.58244108  0.60373994  0.77046884    -0.13100
C1995       C  0.55350547  0.59564987  0.76838126     0.09100
C1996       C  0.54654193  0.56655626  0.76420082    -0.13100
H1997       H  0.56223497  0.52342608  0.75988711     0.13100
H1998       H  0.62615796  0.58951874  0.77134152     0.13100
H1999       H  0.58831018  0.62611518  0.77342871     0.13100
H2000       H  0.52461179  0.55996419  0.76102474     0.13100
C2001       C  0.64968644  0.52257804  0.83538880    -0.13000
C2002       C  0.64910493  0.53032075  0.86036772    -0.14500
C2003       C  0.72295600  0.73717884  0.51300003    -0.13100
C2004       C  0.69368338  0.73059543  0.50931802     0.09100
C2005       C  0.68561009  0.70136291  0.50997169    -0.13100
C2006       C  0.70586137  0.67955916  0.51353073    -0.13100
C2007       C  0.73515376  0.68591465  0.51691996     0.09100
C2008       C  0.74335542  0.71521922  0.51668983    -0.13100
H2009       H  0.73037588  0.75919084  0.51342875     0.13100
H2010       H  0.66329438  0.69532221  0.50777439     0.13100
H2011       H  0.69860475  0.65740212  0.51326215     0.13100
H2012       H  0.76548790  0.72158812  0.51872776     0.13100
C2013       C  0.65677969  0.83390316  0.49456904    -0.13000
C2014       C  0.65571718  0.85874390  0.48658849    -0.14500
C2015       C  0.58935830  0.76489058  0.40848182    -0.13100
C2016       C  0.56051195  0.76871357  0.41644185     0.09100
C2017       C  0.55371107  0.77114347  0.44566652    -0.13100
C2018       C  0.57513187  0.76977770  0.46645784    -0.13100
C2019       C  0.60389033  0.76608976  0.45864851     0.09100
C2020       C  0.61087327  0.76357077  0.42942845    -0.13100
H2021       H  0.59530291  0.76315129  0.38608280     0.13100
H2022       H  0.53169455  0.77325008  0.45261680     0.13100
H2023       H  0.56904035  0.77097450  0.48874705     0.13100
H2024       H  0.63296149  0.76110552  0.42280300     0.13100
C2025       C  0.49319603  0.83044229  0.36957424    -0.13000
C2026       C  0.48208949  0.85395567  0.37054269    -0.14500
C2027       C  0.43143168  0.79120463  0.45337405    -0.13100
C2028       C  0.41709938  0.76604276  0.46162751     0.09100
C2029       C  0.42511232  0.73972033  0.44897762    -0.13100
C2030       C  0.44715524  0.73862767  0.42863268    -0.13100
C2031       C  0.46163255  0.76383849  0.42048511     0.09100
C2032       C  0.45328567  0.79015618  0.43292814    -0.13100
H2033       H  0.42541964  0.81183452  0.46234166     0.13100
H2034       H  0.41478363  0.71983306  0.45526975     0.13100
H2035       H  0.45315562  0.71799997  0.41966399     0.13100
H2036       H  0.46317806  0.81019896  0.42653085     0.13100
C2037       C  0.36568089  0.83193658  0.52114484    -0.13000
C2038       C  0.36589049  0.85653245  0.52970516    -0.14500
C2039       C  0.53480600  0.71996192  0.70226148    -0.13100
C2040       C  0.50978135  0.73127621  0.69003978     0.09100
C2041       C  0.48332099  0.72243271  0.70199145    -0.13100
C2042       C  0.48186070  0.70022421  0.72227980    -0.13100
C2043       C  0.50678495  0.68634650  0.73175478     0.09100
C2044       C  0.53336075  0.69804912  0.72284532    -0.13100
H2045       H  0.55565107  0.72761557  0.69549960     0.13100
H2046       H  0.46344674  0.73230358  0.69550197     0.13100
H2047       H  0.46106937  0.69348213  0.73009402     0.13100
H2048       H  0.55334493  0.69040326  0.73155863     0.13100
C2049       C  0.46771615  0.77532434  0.57211052    -0.13100
C2050       C  0.46138917  0.77000251  0.60102765     0.09100
C2051       C  0.43295548  0.76303439  0.60852831    -0.13100
C2052       C  0.41160188  0.76107870  0.58752658    -0.13100
C2053       C  0.41817382  0.76624706  0.55859939     0.09100
C2054       C  0.44645426  0.77340134  0.55117446    -0.13100
H2055       H  0.48922491  0.78008318  0.56532137     0.13100
H2056       H  0.42709861  0.75923883  0.63067448     0.13100
H2057       H  0.38989135  0.75605742  0.59400080     0.13100
H2058       H  0.45241220  0.77695680  0.52901074     0.13100
C2059       C  0.55605252  0.77934592  0.57145408    -0.13100
C2060       C  0.56035072  0.76568857  0.59794728     0.09100
C2061       C  0.58773996  0.75470888  0.60379384    -0.13100
C2062       C  0.60980575  0.75686507  0.58347177    -0.13100
C2063       C  0.60514917  0.76997228  0.55656664     0.09100
C2064       C  0.57799404  0.78165637  0.55132886    -0.13100
H2065       H  0.53570599  0.78832849  0.56566731     0.13100
H2066       H  0.59246384  0.74496496  0.62428601     0.13100
H2067       H  0.63052650  0.74846276  0.58929034     0.13100
H2068       H  0.57300949  0.79245190  0.53159912     0.13100
C2069       C  0.52781956  0.83140549  0.65116062    -0.13000
C2070       C  0.53843645  0.85520031  0.65008885    -0.14500
C2071       C  0.50501858  0.30872184  0.68096145    -0.13100
C2072       C  0.50304506  0.27924618  0.68743520     0.09100
C2073       C  0.50373416  0.27133674  0.71668549    -0.13100
C2074       C  0.50636941  0.29228796  0.73850101    -0.13100
C2075       C  0.50845820  0.32179095  0.73176993     0.09100
C2076       C  0.50738693  0.32949403  0.70259691    -0.13100
H2077       H  0.50475118  0.31576833  0.65883205     0.13100
H2078       H  0.50258694  0.24909948  0.72310496     0.13100
H2079       H  0.50620142  0.28513420  0.76051810     0.13100
H2080       H  0.50828320  0.35192522  0.69645928     0.13100
C2081       C  0.47610972  0.15482810  0.64622391    -0.13000
C2082       C  0.48669282  0.17865124  0.64584864    -0.14500
C2083       C  0.44170135  0.24022218  0.54449339    -0.13100
C2084       C  0.41250630  0.24083694  0.55140055     0.09100
C2085       C  0.40453497  0.24526934  0.58024183    -0.13100
C2086       C  0.42544739  0.24817319  0.60169946    -0.13100
C2087       C  0.45466703  0.24675224  0.59465611     0.09100
C2088       C  0.46248509  0.24314626  0.56581984    -0.13100
H2089       H  0.44857846  0.23822458  0.52251956     0.13100
H2090       H  0.38215011  0.24603360  0.58625057     0.13100
H2091       H  0.41880172  0.25066581  0.62383366     0.13100
H2092       H  0.48475132  0.24286250  0.55964968     0.13100
C2093       C  0.36368047  0.17445843  0.48785439    -0.13000
C2094       C  0.36307761  0.14980408  0.47936460    -0.14500
C2095       C  0.43145389  0.24688910  0.40273113    -0.13100
C2096       C  0.45919456  0.23641747  0.40855305     0.09100
C2097       C  0.46457170  0.22582485  0.43618112    -0.13100
C2098       C  0.44388133  0.22756874  0.45774621    -0.13100
C2099       C  0.41684689  0.23969306  0.45245924     0.09100
C2100       C  0.41071670  0.24869882  0.42437807    -0.13100
H2101       H  0.42547119  0.25378340  0.38144641     0.13100
H2102       H  0.48485930  0.21653846  0.44174535     0.13100
H2103       H  0.44963587  0.21956789  0.47858098     0.13100
H2104       H  0.38975131  0.25679077  0.41885292     0.13100
C2105       C  0.52832507  0.17984326  0.35660946    -0.13000
C2106       C  0.53885148  0.15599607  0.35676897    -0.14500
C2107       C  0.71816712  0.27230953  0.50440938    -0.13100
C2108       C  0.68900024  0.28029788  0.50566201     0.09100
C2109       C  0.68262614  0.30977373  0.50356609    -0.13100
C2110       C  0.70425446  0.33042878  0.50043809    -0.13100
C2111       C  0.73334544  0.32264174  0.49915862     0.09100
C2112       C  0.73996922  0.29313988  0.50131055    -0.13100
H2113       H  0.72456281  0.25007739  0.50543980     0.13100
H2114       H  0.66057501  0.31689100  0.50413287     0.13100
H2115       H  0.69820921  0.35286689  0.49934238     0.13100
H2116       H  0.76188566  0.28585200  0.50112313     0.13100
C2117       C  0.60679801  0.25365747  0.42775268    -0.13100
C2118       C  0.60005442  0.24428492  0.45576178     0.09100
C2119       C  0.57146979  0.23719970  0.46170346    -0.13100
C2120       C  0.55033978  0.23903064  0.44076858    -0.13100
C2121       C  0.55700433  0.24786004  0.41286958     0.09100
C2122       C  0.58547485  0.25548252  0.40657876    -0.13100
H2123       H  0.62856947  0.25908185  0.42193037     0.13100
H2124       H  0.56487176  0.23057165  0.48284492     0.13100
H2125       H  0.52866652  0.23376911  0.44663929     0.13100
H2126       H  0.59143047  0.26203698  0.38510044     0.13100
C2127       C  0.56915791  0.23392107  0.54921259    -0.13100
C2128       C  0.59609149  0.24631091  0.55467085     0.09100
C2129       C  0.60137174  0.25662478  0.58262286    -0.13100
C2130       C  0.58021180  0.25473453  0.60404482    -0.13100
C2131       C  0.55301348  0.24261967  0.59816564     0.09100
C2132       C  0.54818422  0.23199996  0.57035531    -0.13100
H2133       H  0.56360929  0.22546528  0.52838462     0.13100
H2134       H  0.62202828  0.26558660  0.58825425     0.13100
H2135       H  0.58556435  0.26252497  0.62525839     0.13100
H2136       H  0.52813477  0.22231580  0.56428225     0.13100
C2137       C  0.64712056  0.15443498  0.52798601    -0.13000
C2138       C  0.64792023  0.17904224  0.51953046    -0.14500
C2139       C  0.31448855  0.67848689  0.50624813    -0.13100
C2140       C  0.28559145  0.68522939  0.50112754     0.09100
C2141       C  0.27809224  0.71457252  0.49974280    -0.13100
C2142       C  0.29888670  0.73627144  0.50346312    -0.13100
C2143       C  0.32777379  0.72929732  0.50883517     0.09100
C2144       C  0.33510244  0.70000235  0.50994040    -0.13100
H2145       H  0.32115973  0.65623769  0.50754503     0.13100
H2146       H  0.25632304  0.72116636  0.49587743     0.13100
H2147       H  0.29213825  0.75834060  0.50138212     0.13100
H2148       H  0.35713414  0.69367639  0.51334622     0.13100
C2149       C  0.18556013  0.64336943  0.48268168    -0.13000
C2150       C  0.16149574  0.64231674  0.47317582    -0.14500
C2151       C  0.24648928  0.54153127  0.43999864    -0.13100
C2152       C  0.24766040  0.54798842  0.41066169     0.09100
C2153       C  0.25341746  0.57656028  0.40239947    -0.13100
C2154       C  0.25705921  0.59821691  0.42310148    -0.13100
C2155       C  0.25488784  0.59168096  0.45240028     0.09100
C2156       C  0.24996939  0.56309504  0.46062235    -0.13100
H2157       H  0.24341595  0.51974604  0.44713163     0.13100
H2158       H  0.25458988  0.58225888  0.37992073     0.13100
H2159       H  0.26041410  0.62019513  0.41621429     0.13100
H2160       H  0.24858151  0.55744478  0.48311921     0.13100
C2161       C  0.18077017  0.48370033  0.36234690    -0.13000
C2162       C  0.15620011  0.47501522  0.36199830    -0.14500
C2163       C  0.31127365  0.32671157  0.50485810    -0.13100
C2164       C  0.28217875  0.31921218  0.50768550     0.09100
C2165       C  0.27483819  0.28981110  0.50618871    -0.13100
C2166       C  0.29605264  0.26868443  0.50274587    -0.13100
C2167       C  0.32527096  0.27631537  0.50059088     0.09100
C2168       C  0.33236016  0.30573287  0.50164469    -0.13100
H2169       H  0.31777190  0.34909800  0.50525421     0.13100
H2170       H  0.25281017  0.28280454  0.50731584     0.13100
H2171       H  0.28921129  0.24651105  0.50249406     0.13100
H2172       H  0.35453350  0.31253388  0.50035155     0.13100
C2173       C  0.25220355  0.39960369  0.43130396    -0.13100
C2174       C  0.24108825  0.40593662  0.45877975     0.09100
C2175       C  0.23090764  0.43389014  0.46376868    -0.13100
C2176       C  0.23313779  0.45508214  0.44281675    -0.13100
C2177       C  0.24547680  0.44921634  0.41591367     0.09100
C2178       C  0.25450985  0.42094832  0.41028290    -0.13100
H2179       H  0.25913575  0.37816875  0.42569590     0.13100
H2180       H  0.22151409  0.44007784  0.48393580     0.13100
H2181       H  0.22521511  0.47609373  0.44828220     0.13100
H2182       H  0.26293271  0.41502602  0.38946391     0.13100
C2183       C  0.18237255  0.35849837  0.52983080    -0.13000
C2184       C  0.15904290  0.35940544  0.54111753    -0.14500
C2185       C  0.31079805  0.50564680  0.67829700    -0.13100
C2186       C  0.28148765  0.50691279  0.68523666     0.09100
C2187       C  0.27377172  0.50450643  0.71440188    -0.13100
C2188       C  0.29471234  0.50120950  0.73580603    -0.13100
C2189       C  0.32405677  0.50002544  0.72872364     0.09100
C2190       C  0.33159558  0.50225856  0.69954857    -0.13100
H2191       H  0.31764164  0.50689862  0.65611933     0.13100
H2192       H  0.25163770  0.50451769  0.72103227     0.13100
H2193       H  0.28752170  0.49985317  0.75774694     0.13100
H2194       H  0.35390067  0.50165095  0.69317219     0.13100
C2195       C  0.25090695  0.42724235  0.60612807    -0.13100
C2196       C  0.24569703  0.45587258  0.59790289     0.09100
C2197       C  0.24372639  0.46237005  0.56861768    -0.13100
C2198       C  0.24631406  0.44068690  0.54801660    -0.13100
C2199       C  0.25077515  0.41205164  0.55618486     0.09100
C2200       C  0.25343368  0.40550651  0.58542142    -0.13100
H2201       H  0.25249939  0.42156139  0.62857883     0.13100
H2202       H  0.24070452  0.48430746  0.56154674     0.13100
H2203       H  0.24496730  0.44637606  0.52564010     0.13100
H2204       H  0.25649969  0.38349650  0.59227253     0.13100
C2205       C  0.27244043  0.56945013  0.58567486    -0.13100
C2206       C  0.24739115  0.55408008  0.59245785     0.09100
C2207       C  0.22208584  0.56046487  0.57731325    -0.13100
C2208       C  0.22193384  0.58141087  0.55582964    -0.13100
C2209       C  0.24693823  0.59681866  0.54926842     0.09100
C2210       C  0.27218840  0.59060488  0.56442853    -0.13100
H2211       H  0.29242864  0.56487047  0.59642318     0.13100
H2212       H  0.20209484  0.54982179  0.58234768     0.13100
H2213       H  0.20208478  0.58592327  0.54475475     0.13100
H2214       H  0.29201620  0.60163160  0.55941225     0.13100
C2215       C  0.15606377  0.52937675  0.64632107    -0.13000
C2216       C  0.18027381  0.52009033  0.64568110    -0.14500
C2217       C  0.68687435  0.50588513  0.30913657    -0.13100
C2218       C  0.69472490  0.50294245  0.28007010     0.09100
C2219       C  0.72421156  0.50398779  0.27345388    -0.13100
C2220       C  0.74490219  0.50794519  0.29518198    -0.13100
C2221       C  0.73682619  0.51121444  0.32425874     0.09100
C2222       C  0.70740420  0.50983351  0.33069294    -0.13100
H2223       H  0.66448656  0.50537248  0.31521305     0.13100
H2224       H  0.73164674  0.50203918  0.25160865     0.13100
H2225       H  0.76715161  0.50772049  0.28892378     0.13100
H2226       H  0.70022352  0.51148035  0.35273923     0.13100
C2227       C  0.65703314  0.48634802  0.17770004    -0.13000
C2228       C  0.65665290  0.47675319  0.15342112    -0.14500
C2229       C  0.48169108  0.29205941  0.31052864    -0.13100
C2230       C  0.50771785  0.28054178  0.32084547     0.09100
C2231       C  0.53311318  0.28962849  0.30738096    -0.13100
C2232       C  0.53285854  0.31161118  0.28685618    -0.13100
C2233       C  0.50713032  0.32547287  0.27908741     0.09100
C2234       C  0.48145402  0.31409215  0.29005721    -0.13100
H2235       H  0.46119867  0.28416042  0.31780923     0.13100
H2236       H  0.55342005  0.28018472  0.31330282     0.13100
H2237       H  0.55305302  0.31761032  0.27722058     0.13100
H2238       H  0.46102635  0.32247126  0.28308286     0.13100
C2239       C  0.55263714  0.44214230  0.24001418    -0.13100
C2240       C  0.55885110  0.41270353  0.23961406     0.09100
C2241       C  0.58763832  0.40400468  0.24178510    -0.13100
C2242       C  0.60967005  0.42448952  0.24416338    -0.13100
C2243       C  0.60323089  0.45396074  0.24448999     0.09100
C2244       C  0.57454001  0.46248094  0.24252787    -0.13100
H2245       H  0.53077038  0.44950073  0.23953242     0.13100
H2246       H  0.59306646  0.38137814  0.24160223     0.13100
H2247       H  0.63169656  0.41737671  0.24525173     0.13100
H2248       H  0.56892357  0.48491954  0.24363323     0.13100
C2249       C  0.48843540  0.36466552  0.18015880    -0.13000
C2250       C  0.47742697  0.36510835  0.15665085    -0.14500
C2251       C  0.33323969  0.50133832  0.31009976    -0.13100
C2252       C  0.32607867  0.50570123  0.28108716     0.09100
C2253       C  0.29677473  0.50475200  0.27367390    -0.13100
C2254       C  0.27552733  0.50028005  0.29465938    -0.13100
C2255       C  0.28283584  0.49640038  0.32375722     0.09100
C2256       C  0.31212115  0.49692703  0.33095965    -0.13100
H2257       H  0.35547298  0.50145669  0.31670964     0.13100
H2258       H  0.28983462  0.50731420  0.25177170     0.13100
H2259       H  0.25345055  0.50080499  0.28786619     0.13100
H2260       H  0.31870772  0.49455935  0.35310700     0.13100
C2261       C  0.41006727  0.43287229  0.25246669    -0.13100
C2262       C  0.41495563  0.46016927  0.24009733     0.09100
C2263       C  0.44245602  0.46579112  0.22910290    -0.13100
C2264       C  0.46451889  0.44575743  0.23176744    -0.13100
C2265       C  0.45993443  0.41910062  0.24520203     0.09100
C2266       C  0.43220365  0.41279269  0.25511049    -0.13100
H2267       H  0.38914730  0.42656937  0.26010076     0.13100
H2268       H  0.44758214  0.48578106  0.21867372     0.13100
H2269       H  0.48520818  0.45161996  0.22333057     0.13100
H2270       H  0.42728682  0.39205087  0.26438789     0.13100
C2271       C  0.36429033  0.52874363  0.18062804    -0.13000
C2272       C  0.36365571  0.53900135  0.15671403    -0.14500
C2273       C  0.51270735  0.67847577  0.31489783    -0.13100
C2274       C  0.51534022  0.68556522  0.28567468     0.09100
C2275       C  0.51617025  0.71508315  0.27852898    -0.13100
C2276       C  0.51399498  0.73653801  0.29990179    -0.13100
C2277       C  0.51089580  0.72919067  0.32909691     0.09100
C2278       C  0.51088099  0.69975316  0.33610739    -0.13100
H2279       H  0.51190750  0.65613950  0.32138579     0.13100
H2280       H  0.51808957  0.72200994  0.25654356     0.13100
H2281       H  0.51521033  0.75875799  0.29333297     0.13100
H2282       H  0.50928469  0.69310017  0.35830350     0.13100
C2283       C  0.43411841  0.60715687  0.25255041    -0.13100
C2284       C  0.46273879  0.59872798  0.24792542     0.09100
C2285       C  0.46873411  0.56927867  0.24559871    -0.13100
C2286       C  0.44682823  0.54881172  0.24704613    -0.13100
C2287       C  0.41824804  0.55715150  0.25081842     0.09100
C2288       C  0.41207175  0.58653931  0.25398266    -0.13100
H2289       H  0.42870337  0.62969533  0.25451406     0.13100
H2290       H  0.49046840  0.56188218  0.24324762     0.13100
H2291       H  0.45232639  0.52634447  0.24543216     0.13100
H2292       H  0.39015027  0.59359060  0.25665339     0.13100
C2293       C  0.61200337  0.57850034  0.25498064    -0.13100
C2294       C  0.60663773  0.55155209  0.24189786     0.09100
C2295       C  0.57882827  0.54621938  0.23167609    -0.13100
C2296       C  0.55696444  0.56625309  0.23551844    -0.13100
C2297       C  0.56208500  0.59286058  0.24905642     0.09100
C2298       C  0.59009668  0.59877198  0.25853243    -0.13100
H2299       H  0.63318941  0.58439048  0.26227269     0.13100
H2300       H  0.57336492  0.52649219  0.22083472     0.13100
H2301       H  0.53604137  0.56041901  0.22768862     0.13100
H2302       H  0.59544558  0.61932696  0.26809569     0.13100
C2303       C  0.53102444  0.64554988  0.18454923    -0.13000
C2304       C  0.54235458  0.64552267  0.16111180    -0.14500
loop_ 
_geom_bond_atom_site_label_1 
_geom_bond_atom_site_label_2 
_geom_bond_distance 
_geom_bond_site_symmetry_2 
_ccdc_geom_bond_type 
C1            C2   1.536       .  S
C1            C7   1.550       .  S
C1            C5   1.550       .  S
C1         C2274   1.542       .  S
C2            H9   1.086       .  S
C2            C3   1.362       .  D
C3            C4   1.546       .  S
C3         C2284   1.495       .  S
C4            C8   1.532       .  S
C4            C6   1.540       .  S
C4           H10   1.107       .  S
C5           H11   1.085       .  S
C5            C6   1.376       .  D
C6         C2297   1.501       .  S
C7           H12   1.083       .  S
C7            C8   1.369       .  D
C8         C2303   1.454       .  S
C13          C14   1.535       .  S
C13          C19   1.549       .  S
C13          C17   1.550       .  S
C13        C2252   1.541       .  S
C14          H21   1.083       .  S
C14          C15   1.369       .  D
C15          C16   1.551       .  S
C15        C2262   1.508       .  S
C16          C20   1.535       .  S
C16          C18   1.536       .  S
C16          H22   1.107       .  S
C17          H23   1.086       .  S
C17          C18   1.371       .  D
C18        C2287   1.488       .  S
C19          H24   1.083       .  S
C19          C20   1.368       .  D
C20        C2271   1.456       .  S
C25          C26   1.538       .  S
C25          C31   1.541       .  S
C25          C29   1.553       .  S
C25        C2233   1.540       .  S
C26          H33   1.084       .  S
C26          C27   1.360       .  D
C27          C28   1.543       .  S
C27        C2240   1.487       .  S
C28          C32   1.530       .  S
C28          C30   1.538       .  S
C28          H34   1.108       .  S
C29          H35   1.084       .  S
C29          C30   1.377       .  D
C30        C2265   1.499       .  S
C31          H36   1.086       .  S
C31          C32   1.368       .  D
C32        C2249   1.449       .  S
C37          C38   1.536       .  S
C37          C43   1.551       .  S
C37          C41   1.549       .  S
C37        C2218   1.543       .  S
C38          H45   1.084       .  S
C38          C39   1.367       .  D
C39          C40   1.549       .  S
C39        C2294   1.506       .  S
C40          C44   1.534       .  S
C40          C42   1.533       .  S
C40          H46   1.108       .  S
C41          H47   1.086       .  S
C41          C42   1.370       .  D
C42        C2243   1.484       .  S
C43          H48   1.083       .  S
C43          C44   1.371       .  D
C44        C2227   1.457       .  S
C49          C50   1.530       .  S
C49          C55   1.549       .  S
C49          C53   1.547       .  S
C49        C2186   1.535       .  S
C50          H57   1.086       .  S
C50          C51   1.360       .  D
C51          C52   1.542       .  S
C51        C2196   1.485       .  S
C52          C56   1.533       .  S
C52          C54   1.538       .  S
C52          H58   1.108       .  S
C53          H59   1.085       .  S
C53          C54   1.375       .  D
C54        C2206   1.494       .  S
C55          H60   1.083       .  S
C55          C56   1.368       .  D
C56        C2216   1.452       .  S
C61          C62   1.534       .  S
C61          C67   1.549       .  S
C61          C65   1.546       .  S
C61        C2164   1.533       .  S
C62          H69   1.084       .  S
C62          C63   1.367       .  D
C63          C64   1.547       .  S
C63        C2174   1.501       .  S
C64          C68   1.530       .  S
C64          C66   1.532       .  S
C64          H70   1.107       .  S
C65          H71   1.086       .  S
C65          C66   1.367       .  D
C66        C2199   1.480       .  S
C67          H72   1.084       .  S
C67          C68   1.369       .  D
C68        C2183   1.449       .  S
C73          C74   1.530       .  S
C73          C79   1.551       .  S
C73          C77   1.549       .  S
C73        C2255   1.538       .  S
C74          H81   1.087       .  S
C74          C75   1.359       .  D
C75          C76   1.546       .  S
C75        C2152   1.490       .  S
C76          C80   1.535       .  S
C76          C78   1.540       .  S
C76          H82   1.107       .  S
C77          H83   1.085       .  S
C77          C78   1.377       .  D
C78        C2177   1.497       .  S
C79          H84   1.084       .  S
C79          C80   1.370       .  D
C80        C2161   1.457       .  S
C85          C86   1.537       .  S
C85          C91   1.550       .  S
C85          C89   1.548       .  S
C85        C2140   1.536       .  S
C86          H93   1.086       .  S
C86          C87   1.363       .  D
C87          C88   1.536       .  S
C87        C2209   1.487       .  S
C88          C92   1.529       .  S
C88          C90   1.532       .  S
C88          H94   1.110       .  S
C89          H95   1.086       .  S
C89          C90   1.370       .  D
C90        C2155   1.481       .  S
C91          H96   1.083       .  S
C91          C92   1.369       .  D
C92        C2149   1.447       .  S
C97          C98   1.536       .  S
C97         C103   1.549       .  S
C97         C101   1.552       .  S
C97        C2108   1.543       .  S
C98         H105   1.085       .  S
C98          C99   1.364       .  D
C99         C100   1.548       .  S
C99        C2118   1.501       .  S
C100        C104   1.529       .  S
C100        C102   1.542       .  S
C100        H106   1.106       .  S
C101        H107   1.085       .  S
C101        C102   1.377       .  D
C102       C2128   1.504       .  S
C103        H108   1.083       .  S
C103        C104   1.366       .  D
C104       C2138   1.452       .  S
C109        C110   1.540       .  S
C109        C115   1.544       .  S
C109        C113   1.548       .  S
C109       C2230   1.542       .  S
C110        H117   1.079       .  S
C110        C111   1.366       .  D
C111        C112   1.549       .  S
C111       C2096   1.504       .  S
C112        C116   1.533       .  S
C112        C114   1.540       .  S
C112        H118   1.107       .  S
C113        H119   1.086       .  S
C113        C114   1.369       .  D
C114       C2121   1.489       .  S
C115        H120   1.086       .  S
C115        C116   1.369       .  D
C116       C2105   1.456       .  S
C121        C122   1.533       .  S
C121        C127   1.547       .  S
C121        C125   1.549       .  S
C121       C2167   1.535       .  S
C122        H129   1.087       .  S
C122        C123   1.360       .  D
C123        C124   1.545       .  S
C123       C2084   1.490       .  S
C124        C128   1.533       .  S
C124        C126   1.539       .  S
C124        H130   1.107       .  S
C125        H131   1.085       .  S
C125        C126   1.376       .  D
C126       C2099   1.498       .  S
C127        H132   1.083       .  S
C127        C128   1.366       .  D
C128       C2093   1.451       .  S
C133        C134   1.539       .  S
C133        C139   1.548       .  S
C133        C137   1.548       .  S
C133       C2072   1.540       .  S
C134        H141   1.084       .  S
C134        C135   1.369       .  D
C135        C136   1.551       .  S
C135       C2131   1.507       .  S
C136        C140   1.531       .  S
C136        C138   1.535       .  S
C136        H142   1.107       .  S
C137        H143   1.086       .  S
C137        C138   1.369       .  D
C138       C2087   1.486       .  S
C139        H144   1.083       .  S
C139        C140   1.368       .  D
C140       C2082   1.452       .  S
C145        C146   1.537       .  S
C145        C151   1.544       .  S
C145        C149   1.553       .  S
C145       C2040   1.543       .  S
C146        H153   1.083       .  S
C146        C147   1.360       .  D
C147        C148   1.542       .  S
C147       C2050   1.492       .  S
C148        C152   1.528       .  S
C148        C150   1.540       .  S
C148        H154   1.106       .  S
C149        H155   1.084       .  S
C149        C150   1.377       .  D
C150       C2060   1.499       .  S
C151        H156   1.086       .  S
C151        C152   1.370       .  D
C152       C2069   1.451       .  S
C157        C158   1.535       .  S
C157        C163   1.549       .  S
C157        C161   1.548       .  S
C157       C2143   1.534       .  S
C158        H165   1.086       .  S
C158        C159   1.362       .  D
C159        C160   1.538       .  S
C159       C2028   1.486       .  S
C160        C164   1.529       .  S
C160        C162   1.534       .  S
C160        H166   1.109       .  S
C161        H167   1.086       .  S
C161        C162   1.372       .  D
C162       C2053   1.485       .  S
C163        H168   1.084       .  S
C163        C164   1.368       .  D
C164       C2037   1.448       .  S
C169        C170   1.534       .  S
C169        C175   1.554       .  S
C169        C173   1.549       .  S
C169       C2277   1.540       .  S
C170        H177   1.086       .  S
C170        C171   1.363       .  D
C171        C172   1.541       .  S
C171       C2016   1.488       .  S
C172        C176   1.528       .  S
C172        C174   1.535       .  S
C172        H178   1.109       .  S
C173        H179   1.086       .  S
C173        C174   1.371       .  D
C174       C2031   1.490       .  S
C175        H180   1.084       .  S
C175        C176   1.373       .  D
C176       C2025   1.453       .  S
C181        C182   1.535       .  S
C181        C187   1.554       .  S
C181        C185   1.547       .  S
C181       C2004   1.540       .  S
C182        H189   1.084       .  S
C182        C183   1.367       .  D
C183        C184   1.549       .  S
C183       C2063   1.504       .  S
C184        C188   1.532       .  S
C184        C186   1.535       .  S
C184        H190   1.107       .  S
C185        H191   1.086       .  S
C185        C186   1.369       .  D
C186       C2019   1.485       .  S
C187        H192   1.083       .  S
C187        C188   1.372       .  D
C188       C2013   1.458       .  S
C193        C194   1.535       .  S
C193        C199   1.555       .  S
C193        C197   1.544       .  S
C193       C1972   1.542       .  S
C194        H201   1.084       .  S
C194        C195   1.368       .  D
C195        C196   1.548       .  S
C195       C1982   1.502       .  S
C196        C200   1.534       .  S
C196        C198   1.531       .  S
C196        H202   1.108       .  S
C197        H203   1.086       .  S
C197        C198   1.366       .  D
C198       C1992   1.475       .  S
C199        H204   1.083       .  S
C199        C200   1.373       .  D
C200       C2001   1.461       .  S
C205        C206   1.540       .  S
C205        C211   1.544       .  S
C205        C209   1.557       .  S
C205       C2043   1.543       .  S
C206        H213   1.084       .  S
C206        C207   1.357       .  D
C207        C208   1.536       .  S
C207       C1995   1.481       .  S
C208        C212   1.530       .  S
C208        C210   1.538       .  S
C208        H214   1.107       .  S
C209        H215   1.085       .  S
C209        C210   1.378       .  D
C210       C1960   1.497       .  S
C211        H216   1.086       .  S
C211        C212   1.369       .  D
C212       C1970   1.454       .  S
C217        C218   1.535       .  S
C217        C223   1.551       .  S
C217        C221   1.547       .  S
C217       C2189   1.536       .  S
C218        H225   1.084       .  S
C218        C219   1.365       .  D
C219        C220   1.550       .  S
C219       C1963   1.503       .  S
C220        C224   1.530       .  S
C220        C222   1.538       .  S
C220        H226   1.107       .  S
C221        H227   1.086       .  S
C221        C222   1.370       .  D
C222       C1948   1.488       .  S
C223        H228   1.083       .  S
C223        C224   1.368       .  D
C224       C1957   1.454       .  S
C229        C230   1.533       .  S
C229        C235   1.552       .  S
C229        C233   1.550       .  S
C229       C2075   1.539       .  S
C230        H237   1.086       .  S
C230        C231   1.361       .  D
C231        C232   1.546       .  S
C231       C1951   1.492       .  S
C232        C236   1.529       .  S
C232        C234   1.538       .  S
C232        H238   1.108       .  S
C233        H239   1.085       .  S
C233        C234   1.374       .  D
C234       C1985   1.499       .  S
C235        H240   1.084       .  S
C235        C236   1.372       .  D
C236       C1945   1.452       .  S
C241        C242   1.535       .  S
C241        C247   1.549       .  S
C241        C245   1.550       .  S
C241       C2007   1.542       .  S
C242        H249   1.086       .  S
C242        C243   1.363       .  D
C243        C244   1.546       .  S
C243       C1924   1.496       .  S
C244        C248   1.536       .  S
C244        C246   1.536       .  S
C244        H250   1.110       .  S
C245        H251   1.086       .  S
C245        C246   1.375       .  D
C246       C1934   1.490       .  S
C247        H252   1.083       .  S
C247        C248   1.368       .  D
C248       C1944   1.456       .  S
C253        C254   1.531       .  S
C253        C259   1.550       .  S
C253        C257   1.553       .  S
C253       C2221   1.543       .  S
C254        H261   1.086       .  S
C254        C255   1.361       .  D
C255        C256   1.544       .  S
C255       C1912   1.492       .  S
C256        C260   1.533       .  S
C256        C258   1.541       .  S
C256        H262   1.108       .  S
C257        H263   1.085       .  S
C257        C258   1.379       .  D
C258       C1927   1.502       .  S
C259        H264   1.084       .  S
C259        C260   1.369       .  D
C260       C1922   1.453       .  S
C265        C266   1.529       .  S
C265        C271   1.552       .  S
C265        C269   1.549       .  S
C265       C2111   1.540       .  S
C266        H273   1.087       .  S
C266        C267   1.358       .  D
C267        C268   1.543       .  S
C267       C1900   1.487       .  S
C268        C272   1.533       .  S
C268        C270   1.538       .  S
C268        H274   1.109       .  S
C269        H275   1.085       .  S
C269        C270   1.376       .  D
C270       C1915   1.495       .  S
C271        H276   1.084       .  S
C271        C272   1.372       .  D
C272       C1909   1.454       .  S
C277        C278   1.534       .  S
C277        C283   1.550       .  S
C277        C281   1.555       .  S
C277       C1975   1.544       .  S
C278        H285   1.086       .  S
C278        C279   1.365       .  D
C279        C280   1.543       .  S
C279       C1937   1.495       .  S
C280        C284   1.529       .  S
C280        C282   1.532       .  S
C280        H286   1.109       .  S
C281        H287   1.085       .  S
C281        C282   1.377       .  D
C282       C1903   1.491       .  S
C283        H288   1.083       .  S
C283        C284   1.367       .  D
C284       C1897   1.451       .  S
C289        C290   1.530   1_565  S
C289        C295   1.552       .  S
C289        C293   1.550       .  S
C289       C1866   1.536       .  S
C290        H297   1.087       .  S
C290        C291   1.358       .  D
C291        C292   1.538   1_545  S
C291       C1876   1.481       .  S
C292        C296   1.530       .  S
C292        C294   1.536       .  S
C292        H298   1.109       .  S
C293        H299   1.085       .  S
C293        C294   1.377       .  D
C294       C1886   1.491       .  S
C295        H300   1.083       .  S
C295        C296   1.369       .  D
C296       C1895   1.452       .  S
C301        C302   1.532       .  S
C301        C307   1.555   1_554  S
C301        C305   1.546   1_554  S
C301       C1844   1.536       .  S
C302        H309   1.087       .  S
C302        C303   1.358       .  D
C303        C304   1.537       .  S
C303       C1854   1.479       .  S
C304        C308   1.528   1_554  S
C304        C306   1.534   1_554  S
C304        H310   1.110       .  S
C305        H311   1.086       .  S
C305        C306   1.372       .  D
C306       C1879   1.484       .  S
C307        H312   1.083       .  S
C307        C308   1.372       .  D
C308       C1864   1.452       .  S
C313        C314   1.530   1_545  S
C313        C319   1.553       .  S
C313        C317   1.548       .  S
C313       C1822   1.535       .  S
C314        H321   1.087       .  S
C314        C315   1.359       .  D
C315        C316   1.540   1_565  S
C315       C1832   1.486       .  S
C316        C320   1.530       .  S
C316        C318   1.535       .  S
C316        H322   1.110       .  S
C317        H323   1.086       .  S
C317        C318   1.372       .  D
C318       C1857   1.484       .  S
C319        H324   1.083       .  S
C319        C320   1.372       .  D
C320       C1841   1.453       .  S
C325        C326   1.527   1_554  S
C325        C331   1.552       .  S
C325        C329   1.547       .  S
C325       C1810   1.537       .  S
C326        H333   1.087       .  S
C326        C327   1.358       .  D
C327        C328   1.545   1_556  S
C327       C1889   1.489       .  S
C328        C332   1.534       .  S
C328        C330   1.537       .  S
C328        H334   1.109       .  S
C329        H335   1.085       .  S
C329        C330   1.374       .  D
C330       C1835   1.491       .  S
C331        H336   1.084       .  S
C331        C332   1.374       .  D
C332       C1819   1.456       .  S
C337        C338   1.535       .  S
C337        C343   1.549   1_554  S
C337        C341   1.550   1_554  S
C337       C1813   1.542       .  S
C338        H345   1.083       .  S
C338        C339   1.370       .  D
C339        C340   1.551   1_554  S
C339       C1788   1.511       .  S
C340        C344   1.534       .  S
C340        C342   1.537       .  S
C340        H346   1.106       .  S
C341        H347   1.086       .  S
C341        C342   1.372       .  D
C342       C1798   1.490       .  S
C343        H348   1.083       .  S
C343        C344   1.367       .  D
C344       C1807   1.456       .  S
C349        C350   1.529       .  S
C349        C355   1.548       .  S
C349        C353   1.550   1_455  S
C349       C1766   1.541       .  S
C350        H357   1.086       .  S
C350        C351   1.361       .  D
C351        C352   1.549       .  S
C351       C1779   1.494       .  S
C352        C356   1.536       .  S
C352        C354   1.542   1_455  S
C352        H358   1.107       .  S
C353        H359   1.084       .  S
C353        C354   1.379       .  D
C354       C1791   1.504       .  S
C355        H360   1.084   1_455  S
C355        C356   1.368       .  D
C356       C1786   1.457   1_455  S
C361        C362   1.534   1_554  S
C361        C367   1.550       .  S
C361        C365   1.550       .  S
C361       C1744   1.540       .  S
C362        H369   1.083       .  S
C362        C363   1.368       .  D
C363        C364   1.549   1_556  S
C363       C1757   1.506       .  S
C364        C368   1.531       .  S
C364        C366   1.532       .  S
C364        H370   1.106       .  S
C365        H371   1.086       .  S
C365        C366   1.373       .  D
C366       C1776   1.486       .  S
C367        H372   1.083       .  S
C367        C368   1.367       .  D
C368       C1763   1.453       .  S
C373        C374   1.531   1_455  S
C373        C379   1.549       .  S
C373        C377   1.548       .  S
C373       C1732   1.534       .  S
C374        H381   1.086       .  S
C374        C375   1.361       .  D
C375        C376   1.547   1_655  S
C375       C1801   1.495       .  S
C376        C380   1.531       .  S
C376        C378   1.541       .  S
C376        H382   1.106       .  S
C377        H383   1.084       .  S
C377        C378   1.377       .  D
C378       C1754   1.500       .  S
C379        H384   1.084       .  S
C379        C380   1.367       .  D
C380       C1742   1.452       .  S
C385        C386   1.533       .  S
C385        C391   1.550       .  S
C385        C389   1.547   1_455  S
C385       C1735   1.535       .  S
C386        H393   1.086       .  S
C386        C387   1.361       .  D
C387        C388   1.546       .  S
C387       C1710   1.493       .  S
C388        C392   1.531       .  S
C388        C390   1.541   1_455  S
C388        H394   1.107       .  S
C389        H395   1.085       .  S
C389        C390   1.375       .  D
C390       C1720   1.498       .  S
C391        H396   1.083   1_455  S
C391        C392   1.367       .  D
C392       C1729   1.451   1_455  S
C397        C398   1.535       .  S
C397        C403   1.551   1_545  S
C397        C401   1.550   1_545  S
C397       C1688   1.546       .  S
C398        H405   1.084       .  S
C398        C399   1.369       .  D
C399        C400   1.548   1_545  S
C399       C1698   1.506       .  S
C400        C404   1.533       .  S
C400        C402   1.536       .  S
C400        H406   1.107       .  S
C401        H407   1.086       .  S
C401        C402   1.372       .  D
C402       C1713   1.488       .  S
C403        H408   1.083       .  S
C403        C404   1.369       .  D
C404       C1708   1.456       .  S
C409        C410   1.528   1_455  S
C409        C415   1.550       .  S
C409        C413   1.549       .  S
C409       C1666   1.536       .  S
C410        H417   1.086       .  S
C410        C411   1.358       .  D
C411        C412   1.545   1_655  S
C411       C1676   1.488       .  S
C412        C416   1.531       .  S
C412        C414   1.538       .  S
C412        H418   1.108       .  S
C413        H419   1.085       .  S
C413        C414   1.376       .  D
C414       C1701   1.500       .  S
C415        H420   1.084       .  S
C415        C416   1.371       .  D
C416       C1685   1.450       .  S
C421        C422   1.532   1_545  S
C421        C427   1.549       .  S
C421        C425   1.549       .  S
C421       C1869   1.536       .  S
C422        H429   1.083       .  S
C422        C423   1.366       .  D
C423        C424   1.550   1_565  S
C423       C1723   1.504       .  S
C424        C428   1.532       .  S
C424        C426   1.533       .  S
C424        H430   1.107       .  S
C425        H431   1.086       .  S
C425        C426   1.371       .  D
C426       C1679   1.482       .  S
C427        H432   1.083       .  S
C427        C428   1.366       .  D
C428       C1664   1.455       .  S
C433        C434   1.530   1_556  S
C433        C439   1.552       .  S
C433        C437   1.551       .  S
C433       C1747   1.538       .  S
C434        H441   1.087       .  S
C434        C435   1.358       .  D
C435        C436   1.539   1_554  S
C435       C1642   1.480       .  S
C436        C440   1.529       .  S
C436        C438   1.536       .  S
C436        H442   1.109       .  S
C437        H443   1.085       .  S
C437        C438   1.378       .  D
C438       C1652   1.494       .  S
C439        H444   1.084       .  S
C439        C440   1.369       .  D
C440       C1661   1.450       .  S
C445        C446   1.529   1_545  S
C445        C451   1.554       .  S
C445        C449   1.551       .  S
C445       C1691   1.544       .  S
C446        H453   1.086       .  S
C446        C447   1.360       .  D
C447        C448   1.542   1_565  S
C447       C1655   1.491       .  S
C448        C452   1.532       .  S
C448        C450   1.536       .  S
C448        H454   1.109       .  S
C449        H455   1.085       .  S
C449        C450   1.377       .  D
C450       C1630   1.492       .  S
C451        H456   1.084       .  S
C451        C452   1.373       .  D
C452       C1640   1.457       .  S
C457        C458   1.532       .  S
C457        C463   1.553   1_545  S
C457        C461   1.548   1_545  S
C457       C1608   1.537       .  S
C458        H465   1.086       .  S
C458        C459   1.361       .  D
C459        C460   1.540       .  S
C459       C1618   1.487       .  S
C460        C464   1.530   1_545  S
C460        C462   1.534   1_545  S
C460        H466   1.110       .  S
C461        H467   1.086       .  S
C461        C462   1.372       .  D
C462       C1645   1.484       .  S
C463        H468   1.083       .  S
C463        C464   1.370       .  D
C464       C1628   1.454       .  S
C469        C470   1.530   1_554  S
C469        C475   1.551       .  S
C469        C473   1.550       .  S
C469       C1596   1.536       .  S
C470        H477   1.087       .  S
C470        C471   1.358       .  D
C471        C472   1.541   1_556  S
C471       C1633   1.487       .  S
C472        C476   1.533       .  S
C472        C474   1.537       .  S
C472        H478   1.108       .  S
C473        H479   1.085       .  S
C473        C474   1.375       .  D
C474       C1621   1.492       .  S
C475        H480   1.084       .  S
C475        C476   1.371       .  D
C476       C1606   1.456       .  S
C481        C482   1.536       .  S
C481        C487   1.551       .  S
C481        C485   1.550   1_455  S
C481       C1669   1.538       .  S
C482        H489   1.086       .  S
C482        C483   1.364       .  D
C483        C484   1.540       .  S
C483       C1574   1.491       .  S
C484        C488   1.529   1_455  S
C484        C486   1.534   1_455  S
C484        H490   1.110       .  S
C485        H491   1.086       .  S
C485        C486   1.372       .  D
C486       C1584   1.486       .  S
C487        H492   1.083   1_455  S
C487        C488   1.369   1_455  D
C488       C1594   1.450       .  S
C493        C494   1.530   1_554  S
C493        C499   1.547       .  S
C493        C497   1.553       .  S
C493       C1847   1.537       .  S
C494        H501   1.086       .  S
C494        C495   1.361       .  D
C495        C496   1.547   1_556  S
C495       C1587   1.494       .  S
C496        C500   1.533       .  S
C496        C498   1.542       .  S
C496        H502   1.106       .  S
C497        H503   1.085       .  S
C497        C498   1.378       .  D
C498       C1562   1.503       .  S
C499        H504   1.084       .  S
C499        C500   1.366       .  D
C500       C1571   1.454       .  S
C505        C506   1.534   1_455  S
C505        C511   1.552       .  S
C505        C509   1.550       .  S
C505       C1540   1.544       .  S
C506        H513   1.083       .  S
C506        C507   1.368       .  D
C507        C508   1.552   1_655  S
C507       C1565   1.509       .  S
C508        C512   1.533       .  S
C508        C510   1.533       .  S
C508        H514   1.106       .  S
C509        H515   1.086       .  S
C509        C510   1.374       .  D
C510       C1550   1.489       .  S
C511        H516   1.084       .  S
C511        C512   1.370       .  D
C512       C1559   1.460       .  S
C517        C518   1.530       .  S
C517        C523   1.549   1_554  S
C517        C521   1.547   1_554  S
C517       C1599   1.537       .  S
C518        H525   1.086       .  S
C518        C519   1.361       .  D
C519        C520   1.546       .  S
C519       C1553   1.495       .  S
C520        C524   1.536   1_554  S
C520        C522   1.539   1_554  S
C520        H526   1.108       .  S
C521        H527   1.085       .  S
C521        C522   1.374       .  D
C522       C1577   1.495       .  S
C523        H528   1.083       .  S
C523        C524   1.370       .  D
C524       C1538   1.454       .  S
C529        C530   1.533   1_565  S
C529        C535   1.547       .  S
C529        C533   1.549       .  S
C529       C1825   1.537       .  S
C530        H537   1.083       .  S
C530        C531   1.367       .  D
C531        C532   1.552   1_545  S
C531       C1516   1.510       .  S
C532        C536   1.535       .  S
C532        C534   1.537       .  S
C532        H538   1.106       .  S
C533        H539   1.086       .  S
C533        C534   1.371       .  D
C534       C1526   1.488       .  S
C535        H540   1.083       .  S
C535        C536   1.367       .  D
C536       C1535   1.453       .  S
C541        C542   1.531       .  S
C541        C547   1.551   1_455  S
C541        C545   1.553   1_455  S
C541       C1543   1.544       .  S
C542        H549   1.087       .  S
C542        C543   1.360       .  D
C543        C544   1.544       .  S
C543       C1504   1.490       .  S
C544        C548   1.533   1_455  S
C544        C546   1.540   1_455  S
C544        H550   1.106       .  S
C545        H551   1.084       .  S
C545        C546   1.380       .  D
C546       C1519   1.504       .  S
C547        H552   1.084       .  S
C547        C548   1.370       .  D
C548       C1514   1.458       .  S
C553        C554   1.537   1_545  S
C553        C559   1.549       .  S
C553        C557   1.548       .  S
C553       C1611   1.538       .  S
C554        H561   1.084       .  S
C554        C555   1.368       .  D
C555        C556   1.549   1_565  S
C555       C1492   1.503       .  S
C556        C560   1.531       .  S
C556        C558   1.534       .  S
C556        H562   1.108       .  S
C557        H563   1.086       .  S
C557        C558   1.369       .  D
C558       C1507   1.485       .  S
C559        H564   1.083       .  S
C559        C560   1.367       .  D
C560       C1502   1.450       .  S
C565        C566   1.533   1_455  S
C565        C571   1.551       .  S
C565        C569   1.549       .  S
C565       C1769   1.542       .  S
C566        H573   1.086       .  S
C566        C567   1.362       .  D
C567        C568   1.548   1_655  S
C567       C1529   1.497       .  S
C568        C572   1.534       .  S
C568        C570   1.542       .  S
C568        H574   1.107       .  S
C569        H575   1.085       .  S
C569        C570   1.375       .  D
C570       C1495   1.499       .  S
C571        H576   1.083       .  S
C571        C572   1.370       .  D
C572       C1490   1.458       .  S
In577       O579   2.230       .  S
In577       O580   2.252       .  S
In577       O588   2.274       .  S
In577       O582   2.238       .  S
In577       O584   2.248       .  S
In577       O585   2.231       .  S
In577       O586   2.215       .  S
In577       O589   2.262       .  S
C578       C1481   1.462       .  S
C578        O584   1.262       .  A
C578        O586   1.263       .  A
O579        C587   1.260       .  A
O580        C587   1.262       .  A
C581        O588   1.266       .  A
C581        O582   1.257       .  A
C581       C2137   1.445       .  S
C583       C1477   1.478       .  S
C583        O585   1.260       .  A
C583        O589   1.270       .  A
C587       C1485   1.469       .  S
In590       O592   2.220       .  S
In590       O593   2.268       .  S
In590       O601   2.276       .  S
In590       O595   2.266       .  S
In590       O597   2.222       .  S
In590       O598   2.290       .  S
In590       O599   2.206       .  S
In590       O602   2.248       .  S
C591       C1473   1.451   1_545  S
C591        O597   1.263       .  A
C591        O599   1.261       .  A
O592        C600   1.257       .  A
O593        C600   1.263       .  A
C594        O601   1.259       .  A
C594        O595   1.256       .  A
C594       C1663   1.448       .  S
C596       C1470   1.486       .  S
C596        O598   1.267       .  A
C596        O602   1.255       .  A
C600       C1486   1.473       .  S
In603       O605   2.223       .  S
In603       O606   2.255       .  S
In603       O614   2.282       .  S
In603       O608   2.241       .  S
In603       O610   2.246       .  S
In603       O611   2.271       .  S
In603       O612   2.190       .  S
In603       O615   2.243       .  S
C604       C1474   1.460       .  S
C604        O610   1.264       .  A
C604        O612   1.262       .  A
O605        C613   1.259       .  A
O606        C613   1.263       .  A
C607        O614   1.265       .  A
C607        O608   1.255       .  A
C607       C1536   1.446       .  S
C609       C1461   1.476       .  S
C609        O611   1.261       .  A
C609        O615   1.258       .  A
C613       C1465   1.472       .  S
In616       O618   2.231       .  S
In616       O619   2.242       .  S
In616       O627   2.280       .  S
In616       O621   2.247       .  S
In616       O623   2.245       .  S
In616       O624   2.241       .  S
In616       O625   2.214       .  S
In616       O628   2.270       .  S
C617       C1482   1.462       .  S
C617        O623   1.262       .  A
C617        O625   1.263       .  A
O618        C626   1.261       .  A
O619        C626   1.263       .  A
C620        O627   1.268       .  A
C620        O621   1.259       .  A
C620       C2014   1.452       .  S
C622       C1457   1.484   1_565  S
C622        O624   1.260       .  A
C622        O628   1.271       .  A
C626       C1466   1.468       .  S
In629       O631   2.229       .  S
In629       O632   2.254       .  S
In629       O640   2.276       .  S
In629       O634   2.245       .  S
In629       O636   2.234       .  S
In629       O637   2.239       .  S
In629       O638   2.208       .  S
In629       O641   2.271       .  S
C630       C1449   1.461   1_565  S
C630        O636   1.263       .  A
C630        O638   1.263       .  A
O631        C639   1.257       .  A
O632        C639   1.258       .  A
C633        O640   1.265       .  A
C633        O634   1.256       .  A
C633       C1896   1.445       .  S
C635       C1445   1.480       .  S
C635        O637   1.258       .  A
C635        O641   1.269       .  A
C639       C1453   1.463       .  S
In642       O644   2.219       .  S
In642       O645   2.255       .  S
In642       O653   2.271       .  S
In642       O647   2.240       .  S
In642       O649   2.234       .  S
In642       O650   2.228       .  S
In642       O651   2.220       .  S
In642       O654   2.272       .  S
C643       C1441   1.463       .  S
C643        O649   1.261       .  A
C643        O651   1.261       .  A
O644        C652   1.257       .  A
O645        C652   1.260       .  A
C646        O653   1.266       .  A
C646        O647   1.257       .  A
C646       C2070   1.445       .  S
C648       C1478   1.479       .  S
C648        O650   1.258       .  A
C648        O654   1.269       .  A
C652       C1454   1.463       .  S
In655       O657   2.221       .  S
In655       O658   2.259       .  S
In655       O666   2.265       .  S
In655       O660   2.247       .  S
In655       O662   2.223       .  S
In655       O663   2.277       .  S
In655       O664   2.234       .  S
In655       O667   2.244       .  S
C656       C1442   1.462       .  S
C656        O662   1.263       .  A
C656        O664   1.261       .  A
O657        C665   1.256       .  A
O658        C665   1.260       .  A
C659        O666   1.263       .  A
C659        O660   1.257       .  A
C659       C2081   1.444       .  S
C661       C1434   1.483       .  S
C661        O663   1.267       .  A
C661        O667   1.257       .  A
C665       C1437   1.463       .  S
In668       O670   2.203       .  S
In668       O671   2.263       .  S
In668       O679   2.275       .  S
In668       O673   2.254       .  S
In668       O675   2.222       .  S
In668       O676   2.280       .  S
In668       O677   2.222       .  S
In668       O680   2.247       .  S
C669       C1450   1.458       .  S
C669        O675   1.264       .  A
C669        O677   1.260       .  A
O670        C678   1.257       .  A
O671        C678   1.262       .  A
C672        O679   1.263       .  A
C672        O673   1.257       .  A
C672       C1639   1.450       .  S
C674       C1430   1.484       .  S
C674        O676   1.268       .  A
C674        O680   1.257       .  A
C678       C1438   1.463       .  S
In681       O683   2.202       .  S
In681       O684   2.278       .  S
In681       O692   2.279       .  S
In681       O686   2.243       .  S
In681       O688   2.251       .  S
In681       O689   2.244       .  S
In681       O690   2.184       .  S
In681       O693   2.273       .  S
C682       C1421   1.465       .  S
C682        O688   1.265       .  A
C682        O690   1.262       .  A
O683        C691   1.258       .  A
O684        C691   1.263       .  A
C685        O692   1.265       .  A
C685        O686   1.256       .  A
C685       C1842   1.446       .  S
C687       C1417   1.483       .  S
C687        O689   1.257       .  A
C687        O693   1.268       .  A
C691       C1425   1.476       .  S
In694       O696   2.201       .  S
In694       O697   2.280       .  S
In694       O705   2.276       .  S
In694       O699   2.257       .  S
In694       O701   2.253       .  S
In694       O702   2.252       .  S
In694       O703   2.199       .  S
In694       O706   2.282       .  S
C695       C1414   1.465       .  S
C695        O701   1.262       .  A
C695        O703   1.259       .  A
O696        C704   1.254       .  A
O697        C704   1.264       .  A
C698        O705   1.265       .  A
C698        O699   1.258       .  A
C698       C2106   1.450       .  S
C700       C1458   1.484       .  S
C700        O702   1.255       .  A
C700        O706   1.263       .  A
C704       C1426   1.463       .  S
In707       O709   2.224       .  S
In707       O710   2.266       .  S
In707       O718   2.267       .  S
In707       O712   2.249       .  S
In707       O714   2.238       .  S
In707       O715   2.249       .  S
In707       O716   2.209       .  S
In707       O719   2.281       .  S
C708       C1422   1.456   1_565  S
C708        O714   1.263       .  A
C708        O716   1.259       .  A
O709        C717   1.255       .  A
O710        C717   1.264       .  A
C711        O718   1.264       .  A
C711        O712   1.258       .  A
C711       C1627   1.447       .  S
C713       C1405   1.486       .  S
C713        O715   1.257       .  A
C713        O719   1.268       .  A
C717       C1409   1.468       .  S
In720       O722   2.218       .  S
In720       O723   2.267       .  S
In720       O731   2.259       .  S
In720       O725   2.249       .  S
In720       O727   2.239       .  S
In720       O728   2.254       .  S
In720       O729   2.212       .  S
In720       O732   2.278       .  S
C721       C1413   1.458       .  S
C721        O727   1.264       .  A
C721        O729   1.258       .  A
O722        C730   1.254       .  A
O723        C730   1.265       .  A
C724        O731   1.264       .  A
C724        O725   1.260       .  A
C724       C2026   1.446       .  S
C726       C1401   1.486       .  S
C726        O728   1.258       .  A
C726        O732   1.266       .  A
C730       C1410   1.466       .  S
In733       O735   2.228       .  S
In733       O736   2.258       .  S
In733       O744   2.285       .  S
In733       O738   2.251       .  S
In733       O740   2.245       .  S
In733       O741   2.246       .  S
In733       O742   2.209       .  S
In733       O745   2.275       .  S
C734       C1393   1.458   1_565  S
C734        O740   1.262       .  A
C734        O742   1.261       .  A
O735        C743   1.257       .  A
O736        C743   1.262       .  A
C737        O744   1.265       .  A
C737        O738   1.256       .  A
C737       C1707   1.450       .  S
C739       C1389   1.485       .  S
C739        O741   1.259       .  A
C739        O745   1.269       .  A
C743       C1397   1.468       .  S
In746       O748   2.229       .  S
In746       O749   2.248       .  S
In746       O757   2.266       .  S
In746       O751   2.235       .  S
In746       O753   2.241       .  S
In746       O754   2.243       .  S
In746       O755   2.208       .  S
In746       O758   2.263       .  S
C747       C1385   1.458       .  S
C747        O753   1.262       .  A
C747        O755   1.263       .  A
O748        C756   1.262       .  A
O749        C756   1.261       .  A
C750        O757   1.266       .  A
C750        O751   1.257       .  A
C750       C2038   1.442       .  S
C752       C1433   1.482       .  S
C752        O754   1.260       .  A
C752        O758   1.268       .  A
C756       C1398   1.472       .  S
In759       O761   2.228       .  S
In759       O762   2.263       .  S
In759       O770   2.278       .  S
In759       O764   2.244       .  S
In759       O766   2.246       .  S
In759       O767   2.248       .  S
In759       O768   2.206       .  S
In759       O771   2.273       .  S
C760       C1386   1.457       .  S
C760        O766   1.261       .  A
C760        O768   1.261       .  A
O761        C769   1.257       .  A
O762        C769   1.263       .  A
C763        O770   1.265       .  A
C763        O764   1.256       .  A
C763       C2094   1.445       .  S
C765       C1402   1.486       .  S
C765        O767   1.259       .  A
C765        O771   1.268       .  A
C769       C1381   1.470       .  S
In772       O774   2.258       .  S
In772       O775   2.228       .  S
In772       O783   2.274       .  S
In772       O777   2.239       .  S
In772       O779   2.243       .  S
In772       O780   2.263       .  S
In772       O781   2.212       .  S
In772       O784   2.247       .  S
C773       C1394   1.458   1_545  S
C773        O779   1.261       .  A
C773        O781   1.262       .  A
O774        C782   1.262       .  A
O775        C782   1.261       .  A
C776        O783   1.265       .  A
C776        O777   1.256       .  A
C776       C1501   1.444       .  S
C778       C1377   1.482       .  S
C778        O780   1.268       .  A
C778        O784   1.260       .  A
C782       C1382   1.475       .  S
In785       O787   2.216       .  S
In785       O788   2.261       .  S
In785       O796   2.268       .  S
In785       O790   2.245       .  S
In785       O792   2.237       .  S
In785       O793   2.243       .  S
In785       O794   2.211       .  S
In785       O797   2.276       .  S
C786       C1369   1.455       .  S
C786        O792   1.262       .  A
C786        O794   1.258       .  A
O787        C795   1.257       .  A
O788        C795   1.262       .  A
C789        O796   1.262       .  A
C789        O790   1.256       .  A
C789       C2184   1.442       .  S
C791       C1365   1.484       .  S
C791        O793   1.258       .  A
C791        O797   1.268       .  A
C795       C1373   1.465       .  S
In798       O800   2.226       .  S
In798       O801   2.257       .  S
In798       O809   2.264       .  S
In798       O803   2.246       .  S
In798       O805   2.246       .  S
In798       O806   2.235       .  S
In798       O807   2.211       .  S
In798       O810   2.281       .  S
C799       C1361   1.458       .  S
C799        O805   1.263       .  A
C799        O807   1.258       .  A
O800        C808   1.257       .  A
O801        C808   1.260       .  A
C802        O809   1.262       .  A
C802        O803   1.257       .  A
C802       C1686   1.443       .  S
C804       C1378   1.484       .  S
C804        O806   1.257       .  A
C804        O810   1.268       .  A
C808       C1374   1.464       .  S
In811       O813   2.205       .  S
In811       O814   2.280       .  S
In811       O822   2.281       .  S
In811       O816   2.256       .  S
In811       O818   2.256       .  S
In811       O819   2.249       .  S
In811       O820   2.190       .  S
In811       O823   2.283       .  S
C812       C1362   1.468   1_655  S
C812        O818   1.265       .  A
C812        O820   1.261       .  A
O813        C821   1.258       .  A
O814        C821   1.263       .  A
C815        O822   1.265       .  A
C815        O816   1.257       .  A
C815       C1513   1.451       .  S
C817       C1469   1.486       .  S
C817        O819   1.256       .  A
C817        O823   1.266       .  A
C821       C1357   1.476       .  S
In824       O826   2.198       .  S
In824       O827   2.282       .  S
In824       O835   2.269       .  S
In824       O829   2.248       .  S
In824       O831   2.256       .  S
In824       O832   2.262       .  S
In824       O833   2.191       .  S
In824       O836   2.273       .  S
C825       C1370   1.464   1_655  S
C825        O831   1.264       .  A
C825        O833   1.259       .  A
O826        C834   1.256       .  A
O827        C834   1.268       .  A
C828        O835   1.265       .  A
C828        O829   1.258       .  A
C828       C1910   1.447       .  S
C830       C1353   1.486       .  S
C830        O832   1.258       .  A
C830        O836   1.263       .  A
C834       C1358   1.466       .  S
In837       O839   2.216       .  S
In837       O840   2.265       .  S
In837       O848   2.263       .  S
In837       O842   2.249       .  S
In837       O844   2.264       .  S
In837       O845   2.240       .  S
In837       O846   2.184       .  S
In837       O849   2.271       .  S
C838       C1345   1.465       .  S
C838        O844   1.264       .  A
C838        O846   1.259       .  A
O839        C847   1.258       .  A
O840        C847   1.265       .  A
C841        O848   1.265       .  A
C841        O842   1.260       .  A
C841       C2215   1.446       .  S
C843       C1341   1.480       .  S
C843        O845   1.257       .  A
C843        O849   1.265       .  A
C847       C1349   1.469       .  S
In850       O852   2.221       .  S
In850       O853   2.273       .  S
In850       O861   2.277       .  S
In850       O855   2.248       .  S
In850       O857   2.257       .  S
In850       O858   2.279       .  S
In850       O859   2.204       .  S
In850       O862   2.249       .  S
C851       C1337   1.457       .  S
C851        O857   1.263       .  A
C851        O859   1.258       .  A
O852        C860   1.257       .  A
O853        C860   1.261       .  A
C854        O861   1.264       .  A
C854        O855   1.255       .  A
C854       C1741   1.445       .  S
C856       C1333   1.485       .  S
C856        O858   1.265       .  A
C856        O862   1.258       .  A
C860       C1350   1.475       .  S
In863       O865   2.215       .  S
In863       O866   2.268       .  S
In863       O874   2.264       .  S
In863       O868   2.244       .  S
In863       O870   2.268       .  S
In863       O871   2.247       .  S
In863       O872   2.186       .  S
In863       O875   2.281       .  S
C864       C1338   1.470   1_655  S
C864        O870   1.265       .  A
C864        O872   1.259       .  A
O865        C873   1.256       .  A
O866        C873   1.265       .  A
C867        O874   1.264       .  A
C867        O868   1.259       .  A
C867       C1593   1.444       .  S
C869       C1325   1.485       .  S
C869        O871   1.256       .  A
C869        O875   1.265       .  A
C873       C1329   1.467       .  S
In876       O878   2.272       .  S
In876       O879   2.216       .  S
In876       O887   2.285       .  S
In876       O881   2.230       .  S
In876       O883   2.246       .  S
In876       O884   2.275       .  S
In876       O885   2.200       .  S
In876       O888   2.248       .  S
C877       C1346   1.454       .  S
C877        O883   1.263       .  A
C877        O885   1.259       .  A
O878        C886   1.261       .  A
O879        C886   1.257       .  A
C880        O887   1.266       .  A
C880        O881   1.254       .  A
C880       C1898   1.443       .  S
C882       C1366   1.484       .  S
C882        O884   1.267       .  A
C882        O888   1.258       .  A
C886       C1330   1.474       .  S
In889       O891   2.194       .  S
In889       O892   2.262       .  S
In889       O900   2.268       .  S
In889       O894   2.239       .  S
In889       O896   2.248       .  S
In889       O897   2.241       .  S
In889       O898   2.204       .  S
In889       O901   2.260       .  S
C890       C1317   1.465   1_655  S
C890        O896   1.263       .  A
C890        O898   1.260       .  A
O891        C899   1.260       .  A
O892        C899   1.264       .  A
C893        O900   1.265       .  A
C893        O894   1.257       .  A
C893       C1730   1.444       .  S
C895       C1462   1.478       .  S
C895        O897   1.257       .  A
C895        O901   1.265       .  A
C899       C1321   1.471       .  S
In902       O904   2.274       .  S
In902       O905   2.209       .  S
In902       O913   2.282       .  S
In902       O907   2.256       .  S
In902       O909   2.235       .  S
In902       O910   2.283       .  S
In902       O911   2.209       .  S
In902       O914   2.245       .  S
C903       C1313   1.458       .  S
C903        O909   1.265       .  A
C903        O911   1.262       .  A
O904        C912   1.262       .  A
O905        C912   1.253       .  A
C906        O913   1.263       .  A
C906        O907   1.256       .  A
C906       C1943   1.449       .  S
C908       C1342   1.481       .  S
C908        O910   1.266       .  A
C908        O914   1.254       .  A
C912       C1322   1.460       .  S
In915       O917   2.196       .  S
In915       O918   2.275       .  S
In915       O926   2.255       .  S
In915       O920   2.238       .  S
In915       O922   2.263       .  S
In915       O923   2.236       .  S
In915       O924   2.191       .  S
In915       O927   2.258       .  S
C916       C1314   1.467       .  S
C916        O922   1.264       .  A
C916        O924   1.259       .  A
O917        C925   1.256       .  A
O918        C925   1.266       .  A
C919        O926   1.265       .  A
C919        O920   1.259       .  A
C919       C2150   1.440       .  S
C921       C1306   1.476       .  S
C921        O923   1.258       .  A
C921        O927   1.264       .  A
C925       C1309   1.464       .  S
In928       O930   2.200       .  S
In928       O931   2.282       .  S
In928       O939   2.280       .  S
In928       O933   2.264       .  S
In928       O935   2.239       .  S
In928       O936   2.261       .  S
In928       O937   2.220       .  S
In928       O940   2.280       .  S
C929       C1318   1.460       .  S
C929        O935   1.263       .  A
C929        O937   1.259       .  A
O930        C938   1.257       .  A
O931        C938   1.263       .  A
C932        O939   1.262       .  A
C932        O933   1.256       .  A
C932       C1489   1.451       .  S
C934       C1390   1.486       .  S
C934        O936   1.256       .  A
C934        O940   1.264       .  A
C938       C1310   1.476       .  S
In941       O943   2.203       .  S
In941       O944   2.265       .  S
In941       O952   2.280       .  S
In941       O946   2.250       .  S
In941       O948   2.250       .  S
In941       O949   2.240       .  S
In941       O950   2.181       .  S
In941       O953   2.280       .  S
C942       C1297   1.461   1_655  S
C942        O948   1.265       .  A
C942        O950   1.262       .  A
O943        C951   1.258       .  A
O944        C951   1.263       .  A
C945        O952   1.266       .  A
C945        O946   1.257       .  A
C945       C1785   1.450       .  S
C947       C1293   1.483       .  S
C947        O949   1.255       .  A
C947        O953   1.268       .  A
C951       C1301   1.471       .  S
In954       O956   2.213       .  S
In954       O957   2.257       .  S
In954       O965   2.281       .  S
In954       O959   2.235       .  S
In954       O961   2.247       .  S
In954       O962   2.230       .  S
In954       O963   2.217       .  S
In954       O966   2.268       .  S
C955       C1289   1.461       .  S
C955        O961   1.261       .  A
C955        O963   1.260       .  A
O956        C964   1.257       .  A
O957        C964   1.262       .  A
C958        O965   1.266       .  A
C958        O959   1.256       .  A
C958       C1921   1.446       .  S
C960       C1305   1.479   1_655  S
C960        O962   1.258       .  A
C960        O966   1.269       .  A
C964       C1302   1.462       .  S
In967       O969   2.206       .  S
In967       O970   2.272       .  S
In967       O978   2.266       .  S
In967       O972   2.281       .  S
In967       O974   2.243       .  S
In967       O975   2.264       .  S
In967       O976   2.205       .  S
In967       O979   2.283       .  S
C968       C1298   1.454       .  S
C968        O974   1.263       .  A
C968        O976   1.258       .  A
O969        C977   1.256       .  A
O970        C977   1.264       .  A
C971        O978   1.257       .  A
C971        O972   1.260       .  A
C971       C1560   1.453       .  S
C973       C1281   1.490       .  S
C973        O975   1.258       .  A
C973        O979   1.267       .  A
C977       C1285   1.471       .  S
In980       O982   2.223       .  S
In980       O983   2.252       .  S
In980       O991   2.282       .  S
In980       O985   2.245       .  S
In980       O987   2.247       .  S
In980       O988   2.248       .  S
In980       O989   2.210       .  S
In980       O992   2.275       .  S
C981       C1290   1.460       .  S
C981        O987   1.262       .  A
C981        O989   1.261       .  A
O982        C990   1.258       .  A
O983        C990   1.262       .  A
C984        O991   1.267       .  A
C984        O985   1.257       .  A
C984       C2162   1.451       .  S
C986       C1354   1.487       .  S
C986        O988   1.259       .  A
C986        O992   1.269       .  A
C990       C1286   1.464       .  S
In993       O995   2.222       .  S
In993       O996   2.260       .  S
In993      O1004   2.282       .  S
In993       O998   2.239       .  S
In993      O1000   2.247       .  S
In993      O1001   2.251       .  S
In993      O1002   2.215       .  S
In993      O1005   2.277       .  S
C994       C1273   1.460       .  S
C994       O1000   1.261       .  A
C994       O1002   1.261       .  A
O995       C1003   1.258       .  A
O996       C1003   1.263       .  A
C997       O1004   1.266       .  A
C997        O998   1.256       .  A
C997       C1764   1.446       .  S
C999       C1282   1.490       .  S
C999       O1001   1.260       .  A
C999       O1005   1.269       .  A
C1003      C1277   1.467       .  S
In1006     O1008   2.211       .  S
In1006     O1009   2.267       .  S
In1006     O1017   2.280       .  S
In1006     O1011   2.247       .  S
In1006     O1013   2.256       .  S
In1006     O1014   2.280       .  S
In1006     O1015   2.184       .  S
In1006     O1018   2.250       .  S
C1007      C1269   1.459       .  S
C1007      O1013   1.264       .  A
C1007      O1015   1.261       .  A
O1008      C1016   1.259       .  A
O1009      C1016   1.264       .  A
C1010      O1017   1.266       .  A
C1010      O1011   1.257       .  A
C1010      C2272   1.449       .  S
C1012      C1265   1.486       .  S
C1012      O1014   1.268       .  A
C1012      O1018   1.257       .  A
C1016      C1278   1.474       .  S
In1019     O1021   2.215       .  S
In1019     O1022   2.252       .  S
In1019     O1030   2.279       .  S
In1019     O1024   2.242       .  S
In1019     O1026   2.246       .  S
In1019     O1027   2.250       .  S
In1019     O1028   2.210   1_556  S
In1019     O1031   2.266       .  S
C1020      C1274   1.460   1_556  S
C1020      O1026   1.262       .  A
C1020      O1028   1.261   1_556  A
O1021      C1029   1.258       .  A
O1022      C1029   1.262       .  A
C1023      O1030   1.266       .  A
C1023      O1024   1.256       .  A
C1023      C1537   1.448       .  S
C1025      C1334   1.484       .  S
C1025      O1027   1.260       .  A
C1025      O1031   1.269       .  A
C1029      C1261   1.462       .  S
In1032     O1034   2.202       .  S
In1032     O1035   2.272       .  S
In1032     O1043   2.284       .  S
In1032     O1037   2.248       .  S
In1032     O1039   2.245       .  S
In1032     O1040   2.254       .  S
In1032     O1041   2.196       .  S
In1032     O1044   2.273       .  S
C1033      C1270   1.452       .  S
C1033      O1039   1.263       .  A
C1033      O1041   1.259       .  A
O1034      C1042   1.256       .  A
O1035      C1042   1.261       .  A
C1036      O1043   1.265       .  A
C1036      O1037   1.254       .  A
C1036      C1958   1.448       .  S
C1038      C1257   1.485       .  S
C1038      O1040   1.259       .  A
C1038      O1044   1.268       .  A
C1042      C1262   1.471       .  S
In1045     O1047   2.226       .  S
In1045     O1048   2.262       .  S
In1045     O1056   2.271       .  S
In1045     O1050   2.249       .  S
In1045     O1052   2.236       .  S
In1045     O1053   2.249       .  S
In1045     O1054   2.219       .  S
In1045     O1057   2.278       .  S
C1046      C1250   1.459       .  S
C1046      O1052   1.262       .  A
C1046      O1054   1.260       .  A
O1047      C1055   1.257       .  A
O1048      C1055   1.261       .  A
C1049      O1056   1.264       .  A
C1049      O1050   1.258       .  A
C1049      C2304   1.447       .  S
C1051      C1245   1.487       .  S
C1051      O1053   1.257       .  A
C1051      O1057   1.268       .  A
C1055      C1253   1.466       .  S
In1058     O1060   2.214       .  S
In1058     O1061   2.268       .  S
In1058     O1069   2.286       .  S
In1058     O1063   2.235       .  S
In1058     O1065   2.234       .  S
In1058     O1066   2.279       .  S
In1058     O1067   2.209       .  S
In1058     O1070   2.241       .  S
C1059      C1241   1.463       .  S
C1059      O1065   1.263       .  A
C1059      O1067   1.264       .  A
O1060      C1068   1.257       .  A
O1061      C1068   1.261       .  A
C1062      O1069   1.269       .  A
C1062      O1063   1.256       .  A
C1062      C1820   1.449       .  S
C1064      C1406   1.487       .  S
C1064      O1066   1.271       .  A
C1064      O1070   1.258       .  A
C1068      C1254   1.463       .  S
In1071     O1073   2.268       .  S
In1071     O1074   2.206       .  S
In1071     O1082   2.257       .  S
In1071     O1076   2.258       .  S
In1071     O1078   2.236       .  S
In1071     O1079   2.279       .  S
In1071     O1080   2.224       .  S
In1071     O1083   2.244       .  S
C1072      C1242   1.461   1_556  S
C1072      O1078   1.263       .  A
C1072      O1080   1.259       .  A
O1073      C1081   1.259       .  A
O1074      C1081   1.256       .  A
C1075      O1082   1.259       .  A
C1075      O1076   1.262       .  A
C1075      C1662   1.444       .  S
C1077      C1446   1.479       .  S
C1077      O1079   1.264       .  A
C1077      O1083   1.255       .  A
C1081      C1237   1.467       .  S
In1084     O1086   2.199       .  S
In1084     O1087   2.252       .  S
In1084     O1095   2.261       .  S
In1084     O1089   2.264       .  S
In1084     O1091   2.263       .  S
In1084     O1092   2.252       .  S
In1084     O1093   2.189       .  S
In1084     O1096   2.281       .  S
C1085      C1249   1.468   1_556  S
C1085      O1091   1.266       .  A
C1085      O1093   1.258       .  A
O1086      C1094   1.257       .  A
O1087      C1094   1.267       .  A
C1088      O1095   1.261       .  A
C1088      O1089   1.261       .  A
C1088      C1969   1.449       .  S
C1090      C1266   1.485       .  S
C1090      O1092   1.256       .  A
C1090      O1096   1.265       .  A
C1094      C1238   1.459       .  S
In1097     O1099   2.232       .  S
In1097     O1100   2.264       .  S
In1097     O1108   2.280       .  S
In1097     O1102   2.267       .  S
In1097     O1104   2.232       .  S
In1097     O1105   2.257       .  S
In1097     O1106   2.207       .  S
In1097     O1109   2.279       .  S
C1098      C1229   1.454   1_556  S
C1098      O1104   1.263       .  A
C1098      O1106   1.262       .  A
O1099      C1107   1.258       .  A
O1100      C1107   1.261       .  A
C1101      O1108   1.259       .  A
C1101      O1102   1.255       .  A
C1101      C1808   1.449       .  S
C1103      C1326   1.485       .  S
C1103      O1105   1.257       .  A
C1103      O1109   1.266       .  A
C1107      C1233   1.473       .  S
In1110     O1112   2.234       .  S
In1110     O1113   2.252       .  S
In1110     O1121   2.287       .  S
In1110     O1115   2.258       .  S
In1110     O1117   2.257       .  S
In1110     O1118   2.274       .  S
In1110     O1119   2.211       .  S
In1110     O1122   2.253       .  S
C1111      C1225   1.461       .  S
C1111      O1117   1.262       .  A
C1111      O1119   1.260       .  A
O1112      C1120   1.258       .  A
O1113      C1120   1.262       .  A
C1114      O1121   1.265       .  A
C1114      O1115   1.257       .  A
C1114      C2002   1.454       .  S
C1116      C1246   1.486   1_556  S
C1116      O1118   1.268       .  A
C1116      O1122   1.259       .  A
C1120      C1234   1.469       .  S
In1123     O1125   2.219       .  S
In1123     O1126   2.252       .  S
In1123     O1134   2.278       .  S
In1123     O1128   2.238       .  S
In1123     O1130   2.245       .  S
In1123     O1131   2.241       .  S
In1123     O1132   2.215       .  S
In1123     O1135   2.270       .  S
C1124      C1226   1.462       .  S
C1124      O1130   1.262       .  A
C1124      O1132   1.263       .  A
O1125      C1133   1.260       .  A
O1126      C1133   1.263       .  A
C1127      O1134   1.269       .  A
C1127      O1128   1.258       .  A
C1127      C2228   1.450       .  S
C1129      C1217   1.486       .  S
C1129      O1131   1.260       .  A
C1129      O1135   1.271       .  A
C1133      C1221   1.465       .  S
In1136     O1138   2.202       .  S
In1136     O1139   2.266       .  S
In1136     O1147   2.276       .  S
In1136     O1141   2.244       .  S
In1136     O1143   2.255       .  S
In1136     O1144   2.278       .  S
In1136     O1145   2.179       .  S
In1136     O1148   2.235       .  S
C1137      C1230   1.461       .  S
C1137      O1143   1.264       .  A
C1137      O1145   1.261       .  A
O1138      C1146   1.259       .  A
O1139      C1146   1.264       .  A
C1140      O1147   1.266       .  A
C1140      O1141   1.257       .  A
C1140      C1572   1.448       .  S
C1142      C1294   1.482       .  S
C1142      O1144   1.268       .  A
C1142      O1148   1.256       .  A
C1146      C1222   1.473       .  S
In1149     O1151   2.222       .  S
In1149     O1152   2.258       .  S
In1149     O1160   2.259       .  S
In1149     O1154   2.248       .  S
In1149     O1156   2.233       .  S
In1149     O1157   2.240       .  S
In1149     O1158   2.215       .  S
In1149     O1161   2.284       .  S
C1150      C1209   1.457   1_556  S
C1150      O1156   1.263       .  A
C1150      O1158   1.259       .  A
O1151      C1159   1.254       .  A
O1152      C1159   1.263       .  A
C1153      O1160   1.263       .  A
C1153      O1154   1.259       .  A
C1153      C1863   1.445       .  S
C1155      C1429   1.485       .  S
C1155      O1157   1.256       .  A
C1155      O1161   1.269       .  A
C1159      C1213   1.463       .  S
In1162     O1164   2.214       .  S
In1162     O1165   2.258       .  S
In1162     O1173   2.256       .  S
In1162     O1167   2.245       .  S
In1162     O1169   2.234       .  S
In1162     O1170   2.283       .  S
In1162     O1171   2.214       .  S
In1162     O1174   2.248       .  S
C1163      C1205   1.458       .  S
C1163      O1169   1.264       .  A
C1163      O1171   1.258       .  A
O1164      C1172   1.254       .  A
O1165      C1172   1.265       .  A
C1166      O1173   1.264       .  A
C1166      O1167   1.260       .  A
C1166      C1946   1.445       .  S
C1168      C1218   1.486       .  S
C1168      O1170   1.267       .  A
C1168      O1174   1.257       .  A
C1172      C1214   1.463       .  S
In1175     O1177   2.232       .  S
In1175     O1178   2.260       .  S
In1175     O1186   2.273       .  S
In1175     O1180   2.235       .  S
In1175     O1182   2.239       .  S
In1175     O1183   2.280       .  S
In1175     O1184   2.208       .  S
In1175     O1187   2.238       .  S
C1176      C1206   1.463       .  S
C1176      O1182   1.262       .  A
C1176      O1184   1.263       .  A
O1177      C1185   1.256       .  A
O1178      C1185   1.259       .  A
C1179      O1186   1.266       .  A
C1179      O1180   1.256       .  A
C1179      C2250   1.443       .  S
C1181      C1258   1.487       .  S
C1181      O1183   1.270       .  A
C1181      O1187   1.259       .  A
C1185      C1201   1.465       .  S
In1188     O1190   2.212       .  S
In1188     O1191   2.270       .  S
In1188     O1199   2.288       .  S
In1188     O1193   2.239       .  S
In1188     O1195   2.249       .  S
In1188     O1196   2.235       .  S
In1188     O1197   2.194       .  S
In1188     O1200   2.282       .  S
C1189      C1210   1.464       .  S
C1189      O1195   1.264       .  A
C1189      O1197   1.261       .  A
O1190      C1198   1.255       .  A
O1191      C1198   1.261       .  A
C1192      O1199   1.268       .  A
C1192      O1193   1.255       .  A
C1192      C1605   1.449       .  S
C1194      C1418   1.485       .  S
C1194      O1196   1.258       .  A
C1194      O1200   1.271       .  A
C1198      C1202   1.464       .  S
C1201      H1203   1.087       .  S
C1201      C1202   1.341       .  D
C1202      H1204   1.086       .  S
C1205      H1207   1.087   1_556  S
C1205      C1206   1.337   1_556  D
C1206      H1208   1.087       .  S
C1209      H1211   1.087       .  S
C1209      C1210   1.340       .  D
C1210      H1212   1.087       .  S
C1213      H1215   1.087       .  S
C1213      C1214   1.334       .  D
C1214      H1216   1.088       .  S
C1217      H1219   1.086       .  S
C1217      C1218   1.356   1_554  D
C1218      H1220   1.086       .  S
C1221      H1223   1.087       .  S
C1221      C1222   1.343       .  D
C1222      H1224   1.086       .  S
C1225      H1227   1.088       .  S
C1225      C1226   1.342   1_556  D
C1226      H1228   1.089       .  S
C1229      H1231   1.088       .  S
C1229      C1230   1.340       .  D
C1230      H1232   1.086       .  S
C1233      H1235   1.086       .  S
C1233      C1234   1.342       .  D
C1234      H1236   1.087       .  S
C1237      H1239   1.086       .  S
C1237      C1238   1.337       .  D
C1238      H1240   1.088       .  S
C1241      H1243   1.086   1_554  S
C1241      C1242   1.339       .  D
C1242      H1244   1.087       .  S
C1245      H1247   1.086       .  S
C1245      C1246   1.355       .  D
C1246      H1248   1.086   1_554  S
C1249      H1251   1.086       .  S
C1249      C1250   1.343       .  D
C1250      H1252   1.087       .  S
C1253      H1255   1.087       .  S
C1253      C1254   1.341       .  D
C1254      H1256   1.087       .  S
C1257      H1259   1.086       .  S
C1257      C1258   1.355   1_556  D
C1258      H1260   1.086       .  S
C1261      H1263   1.087       .  S
C1261      C1262   1.342       .  D
C1262      H1264   1.086       .  S
C1265      H1267   1.086       .  S
C1265      C1266   1.356   1_554  D
C1266      H1268   1.086       .  S
C1269      H1271   1.087       .  S
C1269      C1270   1.340   1_554  D
C1270      H1272   1.089       .  S
C1273      H1275   1.088   1_554  S
C1273      C1274   1.343       .  D
C1274      H1276   1.088       .  S
C1277      H1279   1.087       .  S
C1277      C1278   1.343       .  D
C1278      H1280   1.086       .  S
C1281      H1283   1.086       .  S
C1281      C1282   1.356       .  D
C1282      H1284   1.086       .  S
C1285      H1287   1.086       .  S
C1285      C1286   1.343       .  D
C1286      H1288   1.087       .  S
C1289      H1291   1.089       .  S
C1289      C1290   1.343   1_655  D
C1290      H1292   1.088       .  S
C1293      H1295   1.087       .  S
C1293      C1294   1.356       .  D
C1294      H1296   1.086       .  S
C1297      H1299   1.086       .  S
C1297      C1298   1.339       .  D
C1298      H1300   1.088   1_455  S
C1301      H1303   1.086       .  S
C1301      C1302   1.341       .  D
C1302      H1304   1.087       .  S
C1305      H1307   1.087   1_455  S
C1305      C1306   1.352       .  D
C1306      H1308   1.086       .  S
C1309      H1311   1.087       .  S
C1309      C1310   1.342       .  D
C1310      H1312   1.086       .  S
C1313      H1315   1.088       .  S
C1313      C1314   1.342   1_655  D
C1314      H1316   1.086       .  S
C1317      H1319   1.086       .  S
C1317      C1318   1.340       .  D
C1318      H1320   1.087   1_455  S
C1321      H1323   1.086       .  S
C1321      C1322   1.340       .  D
C1322      H1324   1.087       .  S
C1325      H1327   1.086       .  S
C1325      C1326   1.355       .  D
C1326      H1328   1.086       .  S
C1329      H1331   1.087       .  S
C1329      C1330   1.341       .  D
C1330      H1332   1.086       .  S
C1333      H1335   1.087       .  S
C1333      C1334   1.353       .  D
C1334      H1336   1.086       .  S
C1337      H1339   1.087   1_455  S
C1337      C1338   1.341       .  D
C1338      H1340   1.086       .  S
C1341      H1343   1.086       .  S
C1341      C1342   1.354   1_455  D
C1342      H1344   1.087       .  S
C1345      H1347   1.086       .  S
C1345      C1346   1.341   1_455  D
C1346      H1348   1.088       .  S
C1349      H1351   1.087       .  S
C1349      C1350   1.342       .  D
C1350      H1352   1.086       .  S
C1353      H1355   1.087       .  S
C1353      C1354   1.355   1_655  D
C1354      H1356   1.086       .  S
C1357      H1359   1.086       .  S
C1357      C1358   1.341       .  D
C1358      H1360   1.088       .  S
C1361      H1363   1.087   1_455  S
C1361      C1362   1.341       .  D
C1362      H1364   1.086       .  S
C1365      H1367   1.086       .  S
C1365      C1366   1.354   1_455  D
C1366      H1368   1.086       .  S
C1369      H1371   1.087       .  S
C1369      C1370   1.340       .  D
C1370      H1372   1.086       .  S
C1373      H1375   1.087       .  S
C1373      C1374   1.341       .  D
C1374      H1376   1.087       .  S
C1377      H1379   1.086       .  S
C1377      C1378   1.353       .  D
C1378      H1380   1.086       .  S
C1381      H1383   1.087       .  S
C1381      C1382   1.342       .  D
C1382      H1384   1.086       .  S
C1385      H1387   1.089       .  S
C1385      C1386   1.342   1_565  D
C1386      H1388   1.088       .  S
C1389      H1391   1.086       .  S
C1389      C1390   1.355       .  D
C1390      H1392   1.086       .  S
C1393      H1395   1.088       .  S
C1393      C1394   1.343   1_545  D
C1394      H1396   1.088       .  S
C1397      H1399   1.087       .  S
C1397      C1398   1.340       .  D
C1398      H1400   1.087       .  S
C1401      H1403   1.086       .  S
C1401      C1402   1.355   1_565  D
C1402      H1404   1.086       .  S
C1405      H1407   1.086       .  S
C1405      C1406   1.356       .  D
C1406      H1408   1.086       .  S
C1409      H1411   1.088       .  S
C1409      C1410   1.335       .  D
C1410      H1412   1.087       .  S
C1413      H1415   1.087   1_565  S
C1413      C1414   1.340   1_565  D
C1414      H1416   1.086       .  S
C1417      H1419   1.086       .  S
C1417      C1418   1.356       .  D
C1418      H1420   1.086       .  S
C1421      H1423   1.086   1_545  S
C1421      C1422   1.340       .  D
C1422      H1424   1.087       .  S
C1425      H1427   1.086       .  S
C1425      C1426   1.342       .  D
C1426      H1428   1.087       .  S
C1429      H1431   1.086       .  S
C1429      C1430   1.355       .  D
C1430      H1432   1.086       .  S
C1433      H1435   1.086       .  S
C1433      C1434   1.353   1_565  D
C1434      H1436   1.086       .  S
C1437      H1439   1.087       .  S
C1437      C1438   1.341       .  D
C1438      H1440   1.087       .  S
C1441      H1443   1.087   1_565  S
C1441      C1442   1.339   1_565  D
C1442      H1444   1.087       .  S
C1445      H1447   1.086       .  S
C1445      C1446   1.352       .  D
C1446      H1448   1.086       .  S
C1449      H1451   1.087       .  S
C1449      C1450   1.339       .  D
C1450      H1452   1.087       .  S
C1453      H1455   1.087       .  S
C1453      C1454   1.339       .  D
C1454      H1456   1.087       .  S
C1457      H1459   1.086   1_545  S
C1457      C1458   1.355       .  D
C1458      H1460   1.086       .  S
C1461      H1463   1.086       .  S
C1461      C1462   1.351       .  D
C1462      H1464   1.087       .  S
C1465      H1467   1.086       .  S
C1465      C1466   1.343       .  D
C1466      H1468   1.087       .  S
C1469      H1471   1.086       .  S
C1469      C1470   1.357       .  D
C1470      H1472   1.086       .  S
C1473      H1475   1.087       .  S
C1473      C1474   1.339       .  D
C1474      H1476   1.087   1_565  S
C1477      H1479   1.086       .  S
C1477      C1478   1.353   1_545  D
C1478      H1480   1.087       .  S
C1481      H1483   1.088       .  S
C1481      C1482   1.344   1_545  D
C1482      H1484   1.088       .  S
C1485      H1487   1.087       .  S
C1485      C1486   1.344       .  D
C1486      H1488   1.086       .  S
C1489      C1490   1.215       .  T
C1491      C1492   1.413       .  A
C1491      C1496   1.405       .  A
C1491      H1497   1.081       .  S
C1492      C1493   1.403       .  A
C1493      C1494   1.392       .  A
C1493      H1498   1.075       .  S
C1494      C1495   1.404       .  A
C1494      H1499   1.073       .  S
C1495      C1496   1.408       .  A
C1496      H1500   1.082       .  S
C1501      C1502   1.211       .  T
C1503      C1504   1.409       .  A
C1503      C1508   1.403       .  A
C1503      H1509   1.083       .  S
C1504      C1505   1.402       .  A
C1505      C1506   1.396       .  A
C1505      H1510   1.078       .  S
C1506      C1507   1.402       .  A
C1506      H1511   1.078       .  S
C1507      C1508   1.404       .  A
C1508      H1512   1.083       .  S
C1513      C1514   1.216       .  T
C1515      C1516   1.405       .  A
C1515      C1520   1.397       .  A
C1515      H1521   1.076       .  S
C1516      C1517   1.415       .  A
C1517      C1518   1.402       .  A
C1517      H1522   1.079       .  S
C1518      C1519   1.405       .  A
C1518      H1523   1.081       .  S
C1519      C1520   1.409       .  A
C1520      H1524   1.076       .  S
C1525      C1526   1.402       .  A
C1525      C1530   1.396       .  A
C1525      H1531   1.080       .  S
C1526      C1527   1.405       .  A
C1527      C1528   1.405       .  A
C1527      H1532   1.083       .  S
C1528      C1529   1.411       .  A
C1528      H1533   1.082       .  S
C1529      C1530   1.402       .  A
C1530      H1534   1.074       .  S
C1535      C1536   1.212       .  T
C1537      C1538   1.213       .  T
C1539      C1540   1.412       .  A
C1539      C1544   1.410       .  A
C1539      H1545   1.079       .  S
C1540      C1541   1.410       .  A
C1541      C1542   1.403       .  A
C1541      H1546   1.083       .  S
C1542      C1543   1.409       .  A
C1542      H1547   1.083       .  S
C1543      C1544   1.412       .  A
C1544      H1548   1.079       .  S
C1549      C1550   1.402       .  A
C1549      C1554   1.400       .  A
C1549      H1555   1.083       .  S
C1550      C1551   1.406       .  A
C1551      C1552   1.399       .  A
C1551      H1556   1.079       .  S
C1552      C1553   1.404       .  A
C1552      H1557   1.082       .  S
C1553      C1554   1.411       .  A
C1554      H1558   1.082       .  S
C1559      C1560   1.217       .  T
C1561      C1562   1.406       .  A
C1561      C1566   1.394       .  A
C1561      H1567   1.074       .  S
C1562      C1563   1.407       .  A
C1563      C1564   1.405       .  A
C1563      H1568   1.082       .  S
C1564      C1565   1.415       .  A
C1564      H1569   1.080       .  S
C1565      C1566   1.404       .  A
C1566      H1570   1.075       .  S
C1571      C1572   1.213       .  T
C1573      C1574   1.403       .  A
C1573      C1578   1.399       .  A
C1573      H1579   1.082       .  S
C1574      C1575   1.408       .  A
C1575      C1576   1.400       .  A
C1575      H1580   1.082       .  S
C1576      C1577   1.406       .  A
C1576      H1581   1.082       .  S
C1577      C1578   1.409       .  A
C1578      H1582   1.081       .  S
C1583      C1584   1.404       .  A
C1583      C1588   1.403       .  A
C1583      H1589   1.083       .  S
C1584      C1585   1.403       .  A
C1585      C1586   1.396       .  A
C1585      H1590   1.083       .  S
C1586      C1587   1.403       .  A
C1586      H1591   1.075       .  S
C1587      C1588   1.410       .  A
C1588      H1592   1.082       .  S
C1593      C1594   1.211       .  T
C1595      C1596   1.407       .  A
C1595      C1600   1.396       .  A
C1595      H1601   1.083       .  S
C1596      C1597   1.412       .  A
C1597      C1598   1.410       .  A
C1597      H1602   1.079       .  S
C1598      C1599   1.411       .  A
C1598      H1603   1.079       .  S
C1599      C1600   1.408       .  A
C1600      H1604   1.083       .  S
C1605      C1606   1.214       .  T
C1607      C1608   1.408       .  A
C1607      C1612   1.398       .  A
C1607      H1613   1.083       .  S
C1608      C1609   1.411       .  A
C1609      C1610   1.408       .  A
C1609      H1614   1.079       .  S
C1610      C1611   1.412       .  A
C1610      H1615   1.079       .  S
C1611      C1612   1.407       .  A
C1612      H1616   1.083       .  S
C1617      C1618   1.408       .  A
C1617      C1622   1.400       .  A
C1617      H1623   1.083       .  S
C1618      C1619   1.400       .  A
C1619      C1620   1.397       .  A
C1619      H1624   1.083       .  S
C1620      C1621   1.410       .  A
C1620      H1625   1.081       .  S
C1621      C1622   1.404       .  A
C1622      H1626   1.082       .  S
C1627      C1628   1.213       .  T
C1629      C1630   1.403       .  A
C1629      C1634   1.400       .  A
C1629      H1635   1.082       .  S
C1630      C1631   1.411       .  A
C1631      C1632   1.398       .  A
C1631      H1636   1.081       .  S
C1632      C1633   1.399       .  A
C1632      H1637   1.083       .  S
C1633      C1634   1.409       .  A
C1634      H1638   1.083       .  S
C1639      C1640   1.215       .  T
C1641      C1642   1.408       .  A
C1641      C1646   1.399       .  A
C1641      H1647   1.083       .  S
C1642      C1643   1.399       .  A
C1643      C1644   1.394       .  A
C1643      H1648   1.083       .  S
C1644      C1645   1.407       .  A
C1644      H1649   1.082       .  S
C1645      C1646   1.403       .  A
C1646      H1650   1.083       .  S
C1651      C1652   1.403       .  A
C1651      C1656   1.399       .  A
C1651      H1657   1.082       .  S
C1652      C1653   1.411       .  A
C1653      C1654   1.401       .  A
C1653      H1658   1.082       .  S
C1654      C1655   1.402       .  A
C1654      H1659   1.083       .  S
C1655      C1656   1.410       .  A
C1656      H1660   1.082       .  S
C1661      C1662   1.211       .  T
C1663      C1664   1.213       .  T
C1665      C1666   1.410       .  A
C1665      C1670   1.409       .  A
C1665      H1671   1.079       .  S
C1666      C1667   1.408       .  A
C1667      C1668   1.398       .  A
C1667      H1672   1.083       .  S
C1668      C1669   1.407       .  A
C1668      H1673   1.083       .  S
C1669      C1670   1.413       .  A
C1670      H1674   1.079       .  S
C1675      C1676   1.410       .  A
C1675      C1680   1.402       .  A
C1675      H1681   1.082       .  S
C1676      C1677   1.400       .  A
C1677      C1678   1.394       .  A
C1677      H1682   1.078       .  S
C1678      C1679   1.402       .  A
C1678      H1683   1.078       .  S
C1679      C1680   1.402       .  A
C1680      H1684   1.083       .  S
C1685      C1686   1.211       .  T
C1687      C1688   1.413       .  A
C1687      C1692   1.411       .  A
C1687      H1693   1.079       .  S
C1688      C1689   1.409       .  A
C1689      C1690   1.402       .  A
C1689      H1694   1.083       .  S
C1690      C1691   1.410       .  A
C1690      H1695   1.083       .  S
C1691      C1692   1.412       .  A
C1692      H1696   1.079       .  S
C1697      C1698   1.406       .  A
C1697      C1702   1.397       .  A
C1697      H1703   1.076       .  S
C1698      C1699   1.412       .  A
C1699      C1700   1.401       .  A
C1699      H1704   1.080       .  S
C1700      C1701   1.406       .  A
C1700      H1705   1.082       .  S
C1701      C1702   1.407       .  A
C1702      H1706   1.077       .  S
C1707      C1708   1.215       .  T
C1709      C1710   1.402       .  A
C1709      C1714   1.396       .  A
C1709      H1715   1.077       .  S
C1710      C1711   1.411       .  A
C1711      C1712   1.404       .  A
C1711      H1716   1.082       .  S
C1712      C1713   1.404       .  A
C1712      H1717   1.083       .  S
C1713      C1714   1.402       .  A
C1714      H1718   1.078       .  S
C1719      C1720   1.405       .  A
C1719      C1724   1.394       .  A
C1719      H1725   1.075       .  S
C1720      C1721   1.406       .  A
C1721      C1722   1.401       .  A
C1721      H1726   1.081       .  S
C1722      C1723   1.413       .  A
C1722      H1727   1.080       .  S
C1723      C1724   1.404       .  A
C1724      H1728   1.075       .  S
C1729      C1730   1.211       .  T
C1731      C1732   1.411       .  A
C1731      C1736   1.405       .  A
C1731      H1737   1.079       .  S
C1732      C1733   1.407       .  A
C1733      C1734   1.398       .  A
C1733      H1738   1.083       .  S
C1734      C1735   1.408       .  A
C1734      H1739   1.083       .  S
C1735      C1736   1.410       .  A
C1736      H1740   1.078       .  S
C1741      C1742   1.212       .  T
C1743      C1744   1.409   1_556  A
C1743      C1748   1.400       .  A
C1743      H1749   1.083       .  S
C1744      C1745   1.411       .  A
C1745      C1746   1.407       .  A
C1745      H1750   1.078       .  S
C1746      C1747   1.411   1_554  A
C1746      H1751   1.079       .  S
C1747      C1748   1.408       .  A
C1748      H1752   1.083       .  S
C1753      C1754   1.407       .  A
C1753      C1758   1.395       .  A
C1753      H1759   1.075       .  S
C1754      C1755   1.406       .  A
C1755      C1756   1.400       .  A
C1755      H1760   1.081       .  S
C1756      C1757   1.413       .  A
C1756      H1761   1.079       .  S
C1757      C1758   1.405       .  A
C1758      H1762   1.077       .  S
C1763      C1764   1.212       .  T
C1765      C1766   1.412       .  A
C1765      C1770   1.409       .  A
C1765      H1771   1.079       .  S
C1766      C1767   1.408       .  A
C1767      C1768   1.401       .  A
C1767      H1772   1.083       .  S
C1768      C1769   1.409       .  A
C1768      H1773   1.083       .  S
C1769      C1770   1.411       .  A
C1770      H1774   1.078       .  S
C1775      C1776   1.404       .  A
C1775      C1780   1.398       .  A
C1775      H1781   1.082       .  S
C1776      C1777   1.403       .  A
C1777      C1778   1.402       .  A
C1777      H1782   1.083       .  S
C1778      C1779   1.410       .  A
C1778      H1783   1.083       .  S
C1779      C1780   1.403       .  A
C1780      H1784   1.078       .  S
C1785      C1786   1.215       .  T
C1787      C1788   1.407       .  A
C1787      C1792   1.398       .  A
C1787      H1793   1.076       .  S
C1788      C1789   1.413       .  A
C1789      C1790   1.401       .  A
C1789      H1794   1.079       .  S
C1790      C1791   1.406       .  A
C1790      H1795   1.081       .  S
C1791      C1792   1.408       .  A
C1792      H1796   1.077       .  S
C1797      C1798   1.403       .  A
C1797      C1802   1.396       .  A
C1797      H1803   1.079       .  S
C1798      C1799   1.405       .  A
C1799      C1800   1.405       .  A
C1799      H1804   1.083       .  S
C1800      C1801   1.411       .  A
C1800      H1805   1.082       .  S
C1801      C1802   1.402       .  A
C1802      H1806   1.077       .  S
C1807      C1808   1.214       .  T
C1809      C1810   1.410       .  A
C1809      C1814   1.410       .  A
C1809      H1815   1.080       .  S
C1810      C1811   1.409       .  A
C1811      C1812   1.399       .  A
C1811      H1816   1.083       .  S
C1812      C1813   1.408       .  A
C1812      H1817   1.083       .  S
C1813      C1814   1.414       .  A
C1814      H1818   1.078       .  S
C1819      C1820   1.214       .  T
C1821      C1822   1.408       .  A
C1821      C1826   1.397   1_545  A
C1821      H1827   1.083       .  S
C1822      C1823   1.410       .  A
C1823      C1824   1.408   1_545  A
C1823      H1828   1.079       .  S
C1824      C1825   1.412       .  A
C1824      H1829   1.079       .  S
C1825      C1826   1.407       .  A
C1826      H1830   1.083       .  S
C1831      C1832   1.407       .  A
C1831      C1836   1.397       .  A
C1831      H1837   1.083       .  S
C1832      C1833   1.401       .  A
C1833      C1834   1.400       .  A
C1833      H1838   1.083       .  S
C1834      C1835   1.410       .  A
C1834      H1839   1.081       .  S
C1835      C1836   1.403       .  A
C1836      H1840   1.082       .  S
C1841      C1842   1.213       .  T
C1843      C1844   1.410       .  A
C1843      C1848   1.399       .  A
C1843      H1849   1.083       .  S
C1844      C1845   1.409       .  A
C1845      C1846   1.406       .  A
C1845      H1850   1.078   1_554  S
C1846      C1847   1.412       .  A
C1846      H1851   1.079       .  S
C1847      C1848   1.407       .  A
C1848      H1852   1.083       .  S
C1853      C1854   1.407       .  A
C1853      C1858   1.399       .  A
C1853      H1859   1.083       .  S
C1854      C1855   1.399       .  A
C1855      C1856   1.396       .  A
C1855      H1860   1.083       .  S
C1856      C1857   1.408       .  A
C1856      H1861   1.082       .  S
C1857      C1858   1.403       .  A
C1858      H1862   1.083       .  S
C1863      C1864   1.212       .  T
C1865      C1866   1.408       .  A
C1865      C1870   1.399   1_565  A
C1865      H1871   1.083       .  S
C1866      C1867   1.411       .  A
C1867      C1868   1.405   1_565  A
C1867      H1872   1.078       .  S
C1868      C1869   1.410       .  A
C1868      H1873   1.078       .  S
C1869      C1870   1.408       .  A
C1870      H1874   1.083       .  S
C1875      C1876   1.399       .  A
C1875      C1880   1.396       .  A
C1875      H1881   1.083       .  S
C1876      C1877   1.408       .  A
C1877      C1878   1.398       .  A
C1877      H1882   1.083       .  S
C1878      C1879   1.402       .  A
C1878      H1883   1.083       .  S
C1879      C1880   1.408       .  A
C1880      H1884   1.082       .  S
C1885      C1886   1.410       .  A
C1885      C1890   1.399       .  A
C1885      H1891   1.082       .  S
C1886      C1887   1.402       .  A
C1887      C1888   1.399       .  A
C1887      H1892   1.083       .  S
C1888      C1889   1.410       .  A
C1888      H1893   1.082       .  S
C1889      C1890   1.400       .  A
C1890      H1894   1.083       .  S
C1895      C1896   1.212       .  T
C1897      C1898   1.211       .  T
C1899      C1900   1.399       .  A
C1899      C1904   1.399       .  A
C1899      H1905   1.083       .  S
C1900      C1901   1.409       .  A
C1901      C1902   1.401       .  A
C1901      H1906   1.083       .  S
C1902      C1903   1.402       .  A
C1902      H1907   1.083       .  S
C1903      C1904   1.411       .  A
C1904      H1908   1.082       .  S
C1909      C1910   1.213       .  T
C1911      C1912   1.409       .  A
C1911      C1916   1.399       .  A
C1911      H1917   1.082       .  S
C1912      C1913   1.402       .  A
C1913      C1914   1.401       .  A
C1913      H1918   1.083       .  S
C1914      C1915   1.411       .  A
C1914      H1919   1.082       .  S
C1915      C1916   1.404       .  A
C1916      H1920   1.082       .  S
C1921      C1922   1.212       .  T
C1923      C1924   1.401       .  A
C1923      C1928   1.401       .  A
C1923      H1929   1.083       .  S
C1924      C1925   1.411       .  A
C1925      C1926   1.404       .  A
C1925      H1930   1.082       .  S
C1926      C1927   1.406       .  A
C1926      H1931   1.082       .  S
C1927      C1928   1.412       .  A
C1928      H1932   1.081       .  S
C1933      C1934   1.404       .  A
C1933      C1938   1.402       .  A
C1933      H1939   1.083       .  S
C1934      C1935   1.405       .  A
C1935      C1936   1.400       .  A
C1935      H1940   1.083       .  S
C1936      C1937   1.406       .  A
C1936      H1941   1.082       .  S
C1937      C1938   1.409       .  A
C1938      H1942   1.082       .  S
C1943      C1944   1.214       .  T
C1945      C1946   1.212       .  T
C1947      C1948   1.406       .  A
C1947      C1952   1.406       .  A
C1947      H1953   1.083       .  S
C1948      C1949   1.399       .  A
C1949      C1950   1.390       .  A
C1949      H1954   1.076       .  S
C1950      C1951   1.399       .  A
C1950      H1955   1.073       .  S
C1951      C1952   1.411       .  A
C1952      H1956   1.083       .  S
C1957      C1958   1.213       .  T
C1959      C1960   1.405       .  A
C1959      C1964   1.390       .  A
C1959      H1965   1.076       .  S
C1960      C1961   1.406       .  A
C1961      C1962   1.405       .  A
C1961      H1966   1.082       .  S
C1962      C1963   1.415       .  A
C1962      H1967   1.080       .  S
C1963      C1964   1.401       .  A
C1964      H1968   1.074       .  S
C1969      C1970   1.214       .  T
C1971      C1972   1.409       .  A
C1971      C1976   1.409       .  A
C1971      H1977   1.079       .  S
C1972      C1973   1.411       .  A
C1973      C1974   1.402       .  A
C1973      H1978   1.083       .  S
C1974      C1975   1.408       .  A
C1974      H1979   1.083       .  S
C1975      C1976   1.414       .  A
C1976      H1980   1.078       .  S
C1981      C1982   1.404       .  A
C1981      C1986   1.395       .  A
C1981      H1987   1.078       .  S
C1982      C1983   1.412       .  A
C1983      C1984   1.402       .  A
C1983      H1988   1.080       .  S
C1984      C1985   1.406       .  A
C1984      H1989   1.082       .  S
C1985      C1986   1.406       .  A
C1986      H1990   1.074       .  S
C1991      C1992   1.401       .  A
C1991      C1996   1.398       .  A
C1991      H1997   1.082       .  S
C1992      C1993   1.402       .  A
C1993      C1994   1.399       .  A
C1993      H1998   1.083       .  S
C1994      C1995   1.405       .  A
C1994      H1999   1.083       .  S
C1995      C1996   1.403       .  A
C1996      H2000   1.078       .  S
C2001      C2002   1.217       .  T
C2003      C2004   1.410       .  A
C2003      C2008   1.410       .  A
C2003      H2009   1.079       .  S
C2004      C2005   1.409       .  A
C2005      C2006   1.399       .  A
C2005      H2010   1.083       .  S
C2006      C2007   1.407       .  A
C2006      H2011   1.083       .  S
C2007      C2008   1.414       .  A
C2008      H2012   1.078       .  S
C2013      C2014   1.216       .  T
C2015      C2016   1.409       .  A
C2015      C2020   1.403       .  A
C2015      H2021   1.083       .  S
C2016      C2017   1.402       .  A
C2017      C2018   1.395       .  A
C2017      H2022   1.082       .  S
C2018      C2019   1.402       .  A
C2018      H2023   1.078       .  S
C2019      C2020   1.404       .  A
C2020      H2024   1.083       .  S
C2025      C2026   1.212       .  T
C2027      C2028   1.401       .  A
C2027      C2032   1.397       .  A
C2027      H2033   1.083       .  S
C2028      C2029   1.408       .  A
C2029      C2030   1.400       .  A
C2029      H2034   1.083       .  S
C2030      C2031   1.404       .  A
C2030      H2035   1.082       .  S
C2031      C2032   1.408       .  A
C2032      H2036   1.081       .  S
C2037      C2038   1.210       .  T
C2039      C2040   1.405       .  A
C2039      C2044   1.403       .  A
C2039      H2045   1.082       .  S
C2040      C2041   1.415       .  A
C2041      C2042   1.404       .  A
C2041      H2046   1.081       .  S
C2042      C2043   1.405       .  A
C2042      H2047   1.082       .  S
C2043      C2044   1.416       .  A
C2044      H2048   1.080       .  S
C2049      C2050   1.402       .  A
C2049      C2054   1.395       .  A
C2049      H2055   1.075       .  S
C2050      C2051   1.410       .  A
C2051      C2052   1.400       .  A
C2051      H2056   1.082       .  S
C2052      C2053   1.404       .  A
C2052      H2057   1.083       .  S
C2053      C2054   1.404       .  A
C2054      H2058   1.083       .  S
C2059      C2060   1.405       .  A
C2059      C2064   1.393       .  A
C2059      H2065   1.074       .  S
C2060      C2061   1.406       .  A
C2061      C2062   1.403       .  A
C2061      H2066   1.082       .  S
C2062      C2063   1.413       .  A
C2062      H2067   1.080       .  S
C2063      C2064   1.403       .  A
C2064      H2068   1.075       .  S
C2069      C2070   1.212       .  T
C2071      C2072   1.407       .  A
C2071      C2076   1.398       .  A
C2071      H2077   1.083       .  S
C2072      C2073   1.413       .  A
C2073      C2074   1.410       .  A
C2073      H2078   1.078       .  S
C2074      C2075   1.411       .  A
C2074      H2079   1.080       .  S
C2075      C2076   1.408       .  A
C2076      H2080   1.083       .  S
C2081      C2082   1.211       .  T
C2083      C2084   1.401       .  A
C2083      C2088   1.395       .  A
C2083      H2089   1.077       .  S
C2084      C2085   1.409       .  A
C2085      C2086   1.404       .  A
C2085      H2090   1.083       .  S
C2086      C2087   1.405       .  A
C2086      H2091   1.083       .  S
C2087      C2088   1.402       .  A
C2088      H2092   1.079       .  S
C2093      C2094   1.211       .  T
C2095      C2096   1.412       .  A
C2095      C2100   1.400       .  A
C2095      H2101   1.081       .  S
C2096      C2097   1.403       .  A
C2097      C2098   1.396       .  A
C2097      H2102   1.075       .  S
C2098      C2099   1.407       .  A
C2098      H2103   1.076       .  S
C2099      C2100   1.405       .  A
C2100      H2104   1.082       .  S
C2105      C2106   1.215       .  T
C2107      C2108   1.414       .  A
C2107      C2112   1.410       .  A
C2107      H2113   1.078       .  S
C2108      C2109   1.407       .  A
C2109      C2110   1.399       .  A
C2109      H2114   1.083       .  S
C2110      C2111   1.408       .  A
C2110      H2115   1.083       .  S
C2111      C2112   1.411       .  A
C2112      H2116   1.079       .  S
C2117      C2118   1.412       .  A
C2117      C2122   1.405       .  A
C2117      H2123   1.081       .  S
C2118      C2119   1.401       .  A
C2119      C2120   1.391       .  A
C2119      H2124   1.078       .  S
C2120      C2121   1.399       .  A
C2120      H2125   1.076       .  S
C2121      C2122   1.406       .  A
C2122      H2126   1.083       .  S
C2127      C2128   1.404       .  A
C2127      C2132   1.392       .  A
C2127      H2133   1.077       .  S
C2128      C2129   1.408       .  A
C2129      C2130   1.407       .  A
C2129      H2134   1.081       .  S
C2130      C2131   1.414       .  A
C2130      H2135   1.081       .  S
C2131      C2132   1.403       .  A
C2132      H2136   1.075       .  S
C2137      C2138   1.212       .  T
C2139      C2140   1.407       .  A
C2139      C2144   1.396       .  A
C2139      H2145   1.083       .  S
C2140      C2141   1.411       .  A
C2141      C2142   1.408       .  A
C2141      H2146   1.078       .  S
C2142      C2143   1.411       .  A
C2142      H2147   1.079       .  S
C2143      C2144   1.407       .  A
C2144      H2148   1.083       .  S
C2149      C2150   1.209       .  T
C2151      C2152   1.402       .  A
C2151      C2156   1.395       .  A
C2151      H2157   1.076       .  S
C2152      C2153   1.409       .  A
C2153      C2154   1.402       .  A
C2153      H2158   1.083       .  S
C2154      C2155   1.403       .  A
C2154      H2159   1.083       .  S
C2155      C2156   1.403       .  A
C2156      H2160   1.083       .  S
C2161      C2162   1.215       .  T
C2163      C2164   1.408       .  A
C2163      C2168   1.396       .  A
C2163      H2169   1.083       .  S
C2164      C2165   1.409       .  A
C2165      C2166   1.406       .  A
C2165      H2170   1.079       .  S
C2166      C2167   1.412       .  A
C2166      H2171   1.078       .  S
C2167      C2168   1.407       .  A
C2168      H2172   1.083       .  S
C2173      C2174   1.412       .  A
C2173      C2178   1.401       .  A
C2173      H2179   1.080       .  S
C2174      C2175   1.404       .  A
C2175      C2176   1.393       .  A
C2175      H2180   1.075       .  S
C2176      C2177   1.406       .  A
C2176      H2181   1.076       .  S
C2177      C2178   1.405       .  A
C2178      H2182   1.082       .  S
C2183      C2184   1.210       .  T
C2185      C2186   1.408       .  A
C2185      C2190   1.397       .  A
C2185      H2191   1.083       .  S
C2186      C2187   1.410       .  A
C2187      C2188   1.406       .  A
C2187      H2192   1.079       .  S
C2188      C2189   1.411       .  A
C2188      H2193   1.078       .  S
C2189      C2190   1.408       .  A
C2190      H2194   1.083       .  S
C2195      C2196   1.409       .  A
C2195      C2200   1.400       .  A
C2195      H2201   1.083       .  S
C2196      C2197   1.402       .  A
C2197      C2198   1.395       .  A
C2197      H2202   1.083       .  S
C2198      C2199   1.402       .  A
C2198      H2203   1.079       .  S
C2199      C2200   1.403       .  A
C2200      H2204   1.083       .  S
C2205      C2206   1.405       .  A
C2205      C2210   1.398       .  A
C2205      H2211   1.082       .  S
C2206      C2207   1.410       .  A
C2207      C2208   1.399       .  A
C2207      H2212   1.081       .  S
C2208      C2209   1.402       .  A
C2208      H2213   1.083       .  S
C2209      C2210   1.406       .  A
C2210      H2214   1.083       .  S
C2215      C2216   1.212       .  T
C2217      C2218   1.409       .  A
C2217      C2222   1.400       .  A
C2217      H2223   1.083       .  S
C2218      C2219   1.412       .  A
C2219      C2220   1.411       .  A
C2219      H2224   1.079       .  S
C2220      C2221   1.414       .  A
C2220      H2225   1.079       .  S
C2221      C2222   1.407       .  A
C2222      H2226   1.083       .  S
C2227      C2228   1.215       .  T
C2229      C2230   1.415       .  A
C2229      C2234   1.402       .  A
C2229      H2235   1.079       .  S
C2230      C2231   1.406       .  A
C2231      C2232   1.402       .  A
C2231      H2236   1.083       .  S
C2232      C2233   1.414       .  A
C2232      H2237   1.080       .  S
C2233      C2234   1.406       .  A
C2234      H2238   1.082       .  S
C2239      C2240   1.400       .  A
C2239      C2244   1.395       .  A
C2239      H2245   1.078       .  S
C2240      C2241   1.409       .  A
C2241      C2242   1.404       .  A
C2241      H2246   1.083       .  S
C2242      C2243   1.404       .  A
C2242      H2247   1.083       .  S
C2243      C2244   1.402       .  A
C2244      H2248   1.078       .  S
C2249      C2250   1.211       .  T
C2251      C2252   1.408       .  A
C2251      C2256   1.399       .  A
C2251      H2257   1.083       .  S
C2252      C2253   1.412       .  A
C2253      C2254   1.408       .  A
C2253      H2258   1.078       .  S
C2254      C2255   1.411       .  A
C2254      H2259   1.079       .  S
C2255      C2256   1.408       .  A
C2256      H2260   1.083       .  S
C2261      C2262   1.413       .  A
C2261      C2266   1.401       .  A
C2261      H2267   1.079       .  S
C2262      C2263   1.406       .  A
C2263      C2264   1.397       .  A
C2263      H2268   1.076       .  S
C2264      C2265   1.406       .  A
C2264      H2269   1.077       .  S
C2265      C2266   1.405       .  A
C2266      H2270   1.082       .  S
C2271      C2272   1.214       .  T
C2273      C2274   1.407       .  A
C2273      C2278   1.398       .  A
C2273      H2279   1.083       .  S
C2274      C2275   1.414       .  A
C2275      C2276   1.411       .  A
C2275      H2280   1.079       .  S
C2276      C2277   1.411       .  A
C2276      H2281   1.080       .  S
C2277      C2278   1.408       .  A
C2278      H2282   1.083       .  S
C2283      C2284   1.410       .  A
C2283      C2288   1.406       .  A
C2283      H2289   1.082       .  S
C2284      C2285   1.402       .  A
C2285      C2286   1.396       .  A
C2285      H2290   1.078       .  S
C2286      C2287   1.402       .  A
C2286      H2291   1.079       .  S
C2287      C2288   1.405       .  A
C2288      H2292   1.083       .  S
C2293      C2294   1.413       .  A
C2293      C2298   1.403       .  A
C2293      H2299   1.080       .  S
C2294      C2295   1.404       .  A
C2295      C2296   1.396       .  A
C2295      H2300   1.075       .  S
C2296      C2297   1.406       .  A
C2296      H2301   1.077       .  S
C2297      C2298   1.407       .  A
C2298      H2302   1.081       .  S
C2303      C2304   1.213       .  T
