geometry optimzed in LAMMPS
_audit_creation_date              2020-11-30 
_audit_creation_method            'lammps2cif' 
_symmetry_space_group_name_H-M    'P1' 
_symmetry_Int_Tables_number       1 
_symmetry_cell_setting            triclinic 
loop_ 
_symmetry_equiv_pos_as_xyz 
  x,y,z 
_cell_length_a                    39.73680537 
_cell_length_b                    39.814434404304144 
_cell_length_c                    29.843523158498307 
_cell_angle_alpha                 89.91653417401729 
_cell_angle_beta                  89.92184188127325 
_cell_angle_gamma                 120.24605916746869 
loop_ 
_atom_site_label 
_atom_site_type_symbol 
_atom_site_fract_x 
_atom_site_fract_y 
_atom_site_fract_z 
_atom_site_charge 
Fe1        Fe  0.19562055  0.30533083  0.24800163     1.65800
Fe2        Fe  0.10825058  0.30227702  0.25167344     1.73200
Fe3        Fe  0.19269174  0.38948181  0.25108152     1.54400
O4          O  0.23599988  0.39484405  0.29301175    -0.80200
O5          O  0.10281927  0.33262610  0.19832195    -0.77900
O6          O  0.23088499  0.33688415  0.30106750    -0.82700
O7          O  0.23536570  0.34370611  0.20221644    -0.77600
O8          O  0.16228211  0.39101399  0.30682070    -0.79400
O9          O  0.10462660  0.26108102  0.20702297    -0.82100
C10         C  0.24287422  0.37553094  0.18388871     0.98700
C11         C  0.24649440  0.37268491  0.31084667     1.06100
O12         O  0.16554647  0.33234681  0.25021380    -1.11100
O13         O  0.10745416  0.26877449  0.30513767    -0.73500
O14         O  0.15958495  0.26288711  0.29290141    -0.77000
O15         O  0.22632080  0.39437999  0.19567724    -0.77700
C16         C  0.12781683  0.25305000  0.31317335     0.97600
O17         O  0.16408505  0.27069339  0.19484454    -0.75700
O18         O  0.10359213  0.33915347  0.29655495    -0.80800
C19         C  0.12119792  0.36887620  0.19001976     1.00200
C20         C  0.12624712  0.37093010  0.31623877     1.06100
O21         O  0.15308126  0.39219775  0.20912376    -0.76500
C22         C  0.12784356  0.25312263  0.18672288     1.04400
C23         C  0.11853710  0.05776352  0.06927203    -0.01000
C24         C  0.43785761  0.38124749  0.43221334    -0.01000
C25         C  0.11975950  0.05573747  0.43362507    -0.01000
C26         C  0.05697572  0.43627117  0.43547534    -0.01000
C27         C  0.05521059  0.43811547  0.07149861    -0.01000
C28         C  0.43567218  0.38096060  0.06840741    -0.01000
C29         C  0.37743459  0.44172531  0.06453494    -0.01000
C30         C  0.06313065  0.11807995  0.43184969    -0.01000
C31         C  0.44359184  0.06307231  0.43106759    -0.01000
C32         C  0.38137748  0.44358719  0.42926658    -0.01000
C33         C  0.44144233  0.06099647  0.06626147    -0.01000
C34         C  0.06067233  0.11881727  0.06719703    -0.01000
Fe35       Fe  0.39177207  0.19748021  0.24793932     1.65800
Fe36       Fe  0.30409768  0.19377699  0.25118712     1.73200
Fe37       Fe  0.30698341  0.10993786  0.24989563     1.54400
O38         O  0.34588574  0.10705181  0.20665541    -0.80200
O39         O  0.27128133  0.16227496  0.30575900    -0.78500
O40         O  0.39562085  0.16668364  0.19429381    -0.82700
O41         O  0.39739958  0.16089550  0.29256007    -0.77600
O42         O  0.27237488  0.10538017  0.19556077    -0.79400
O43         O  0.34144867  0.23622371  0.29465160    -0.82100
C44         C  0.37495509  0.12903036  0.31251519     0.98700
C45         C  0.37743427  0.13040127  0.18680226     1.06100
O46         O  0.33437224  0.16714110  0.24960582    -1.11100
O47         O  0.33360970  0.22857530  0.19717375    -0.73500
O48         O  0.39357877  0.23756390  0.20259868    -0.77000
O49         O  0.33873842  0.10882041  0.30410996    -0.77700
C50         C  0.36913493  0.24535721  0.18530429     0.97600
O51         O  0.39509901  0.23227738  0.30155633    -0.75700
O52         O  0.26242584  0.15486244  0.20775047    -0.80800
C53         C  0.25473814  0.12611777  0.31390674     1.00200
C54         C  0.25436827  0.12359574  0.18762644     1.06100
O55         O  0.26393734  0.10391769  0.29356618    -0.76500
C56         C  0.37434584  0.24703332  0.31231432     1.04400
C57         C  0.43551297  0.11886424  0.09268850    -0.11900
C58         C  0.42511483  0.07953686  0.09787998     0.10300
C59         C  0.40030863  0.05843299  0.13383226    -0.11900
C60         C  0.38453683  0.07501382  0.16156314    -0.11900
C61         C  0.39396569  0.11371158  0.15551089     0.10300
C62         C  0.42018138  0.13582207  0.12129415    -0.11900
H63         H  0.45540001  0.13637228  0.06628185     0.14200
H64         H  0.39344034  0.02915510  0.14158594     0.14200
H65         H  0.36555563  0.05761478  0.18867937     0.14200
H66         H  0.42848612  0.16598727  0.11640962     0.14200
C67         C  0.48327605  0.07774687  0.07324408    -0.11800
C68         C  0.01832547  0.09434383  0.07273447    -0.13400
C69         C  0.44954437  0.11309239  0.37223801    -0.11900
C70         C  0.42632529  0.08189273  0.40140533     0.10300
C71         C  0.38592754  0.06804525  0.40279020    -0.11900
C72         C  0.36914000  0.08379322  0.37478695    -0.11900
C73         C  0.39242437  0.11426892  0.34520731     0.10300
C74         C  0.43282942  0.12907429  0.34480143    -0.11900
H75         H  0.48072300  0.12527995  0.36996378     0.14200
H76         H  0.36723176  0.04440311  0.42510606     0.14200
H77         H  0.33790911  0.07184210  0.37595467     0.14200
H78         H  0.45160981  0.15242632  0.32221954     0.14200
C79         C  0.43646166  0.06762093  0.01895128    -0.11800
C80         C  0.43764205  0.06824006  0.47855515    -0.13400
C81         C  0.42432553  0.02099301  0.42309407    -0.11800
C82         C  0.40637160  0.48589322  0.42301208    -0.13400
C83         C  0.06763361  0.12955893  0.01968704    -0.11800
C84         C  0.06853334  0.12901150  0.47933098    -0.13400
C85         C  0.48578399  0.07946809  0.42466084    -0.11800
C86         C  0.02089058  0.09543757  0.42429295    -0.13400
C87         C  0.40308724  0.48364416  0.07135962    -0.11800
C88         C  0.42233273  0.01861612  0.07157327    -0.13400
C89         C  0.36958288  0.43747871  0.47642994    -0.11800
C90         C  0.36823540  0.43656359  0.01673576    -0.13400
C91         C  0.43183250  0.31904380  0.09732426    -0.11900
C92         C  0.41604840  0.34380845  0.09653849     0.10300
C93         C  0.38233535  0.33320121  0.12242015    -0.11900
C94         C  0.36596869  0.29995331  0.14917820    -0.11900
C95         C  0.38325132  0.27683566  0.15179302     0.10300
C96         C  0.41608278  0.28637133  0.12526538    -0.11900
H97         H  0.45721469  0.32576783  0.07728017     0.14200
H98         H  0.36856625  0.35065618  0.12287158     0.14200
H99         H  0.34074736  0.29335114  0.16949483     0.14200
H100        H  0.42983993  0.26882246  0.12655419     0.14200
C101        C  0.41817792  0.40564719  0.07478426    -0.11800
C102        C  0.40047391  0.42296327  0.07407767    -0.13400
C103        C  0.01298345  0.42065593  0.07950167    -0.11800
C104        C  0.47774702  0.40401770  0.07837619    -0.13400
C105        C  0.06018486  0.43148037  0.02404900    -0.11800
C106        C  0.06086692  0.43083159  0.48357478    -0.13400
C107        C  0.18144361  0.11435597  0.40344932    -0.11900
C108        C  0.15625704  0.07368835  0.40409660     0.10300
C109        C  0.16570520  0.05076452  0.37659517    -0.11900
C110        C  0.19830861  0.06791037  0.34870682    -0.11900
C111        C  0.22241958  0.10849048  0.34688845     0.10300
C112        C  0.21383698  0.13156916  0.37484761    -0.11900
H113        H  0.17542655  0.13290015  0.42443562     0.14200
H114        H  0.14796580  0.01941919  0.37600116     0.14200
H115        H  0.20399753  0.04920244  0.32760483     0.14200
H116        H  0.23191639  0.16294549  0.37432080     0.14200
C117        C  0.07954661  0.09246840  0.42513664    -0.11800
C118        C  0.09625485  0.07415844  0.42510600    -0.13400
C119        C  0.09483716  0.01347216  0.42744207    -0.11800
C120        C  0.07678073  0.47838598  0.42748031    -0.13400
C121        C  0.38683663  0.33467030  0.37581147    -0.11900
C122        C  0.41959425  0.34471014  0.40296728     0.10300
C123        C  0.43566825  0.32013861  0.40212419    -0.11900
C124        C  0.42106598  0.28818564  0.37308709    -0.11900
C125        C  0.38908472  0.27915042  0.34535393     0.10300
C126        C  0.37174913  0.30234321  0.34783377    -0.11900
H127        H  0.37262735  0.35174115  0.37559532     0.14200
H128        H  0.46034108  0.32638748  0.42314341     0.14200
H129        H  0.43489204  0.27069872  0.37220674     0.14200
H130        H  0.34696679  0.29621373  0.32706979     0.14200
C131        C  0.43190953  0.37101838  0.48001856    -0.11800
C132        C  0.43174308  0.37126377  0.02047548    -0.13400
C133        C  0.01518112  0.42039296  0.42713386    -0.11800
C134        C  0.48013568  0.40420243  0.42536102    -0.13400
C135        C  0.42159296  0.40676299  0.42391358    -0.11800
C136        C  0.40503519  0.42516551  0.42232763    -0.13400
C137        C  0.17940394  0.05954260  0.10033741    -0.11900
C138        C  0.15474693  0.07552959  0.09921044     0.10300
C139        C  0.16494299  0.10853686  0.12588882    -0.11900
C140        C  0.19774446  0.12433080  0.15309871    -0.11900
C141        C  0.22155925  0.10768862  0.15529225     0.10300
C142        C  0.21219174  0.07516847  0.12839708    -0.11900
H143        H  0.17286767  0.03451585  0.07991857     0.14200
H144        H  0.14779519  0.12266915  0.12621137     0.14200
H145        H  0.20390067  0.14937271  0.17328422     0.14200
H146        H  0.22998680  0.06167033  0.12925384     0.14200
C147        C  0.09329471  0.01578201  0.07728669    -0.11800
C148        C  0.07404011  0.48067054  0.07707663    -0.13400
C149        C  0.13020097  0.06173677  0.48131737    -0.11800
C150        C  0.12972749  0.06238567  0.02174683    -0.13400
C151        C  0.09476751  0.07626495  0.07537026    -0.11800
C152        C  0.07816286  0.09462293  0.07590183    -0.13400
C153        C  0.12149249  0.42616868  0.15614845    -0.11900
C154        C  0.10489691  0.38563890  0.15824725     0.10300
C155        C  0.07231599  0.36223311  0.13141554    -0.11900
C156        C  0.05676744  0.37922976  0.10318432    -0.11900
C157        C  0.07287200  0.41995501  0.10184172     0.10300
C158        C  0.10575188  0.44302189  0.12876661    -0.11900
H159        H  0.14652906  0.44521190  0.17640926     0.14200
H160        H  0.05884108  0.33087329  0.13226685     0.14200
H161        H  0.03180047  0.36055230  0.08266114     0.14200
H162        H  0.11986957  0.47436820  0.12908378     0.14200
C163        C  0.28454343  0.36779624  0.12647636    -0.11900
C164        C  0.27349054  0.39178402  0.14889488     0.10300
C165        C  0.29412140  0.43185254  0.14018918    -0.11900
C166        C  0.32677908  0.44792323  0.11216882    -0.11900
C167        C  0.33993057  0.42440980  0.09228804     0.10300
C168        C  0.31686465  0.38383496  0.09787924    -0.11900
H169        H  0.26860899  0.33662094  0.13170123     0.14200
H170        H  0.28590564  0.45102998  0.15631932     0.14200
H171        H  0.34157885  0.47886252  0.10619987     0.14200
H172        H  0.32463451  0.36455759  0.08118734     0.14200
C173        C  0.13222362  0.41614405  0.37900585    -0.11900
C174        C  0.10901321  0.38552938  0.34966619     0.10300
C175        C  0.06852613  0.37011171  0.35023481    -0.11900
C176        C  0.05167115  0.38574391  0.37793317    -0.11900
C177        C  0.07470125  0.41720220  0.40669556     0.10300
C178        C  0.11520496  0.43143631  0.40758180    -0.11900
H179        H  0.16352945  0.42856538  0.37949635     0.14200
H180        H  0.04969798  0.34658164  0.32803589     0.14200
H181        H  0.02045391  0.37312433  0.37595083     0.14200
H182        H  0.13382583  0.45525958  0.42955589     0.14200
C183        C  0.30349156  0.43084559  0.34384964    -0.11900
C184        C  0.27924331  0.39025824  0.34287612     0.10300
C185        C  0.28775942  0.36730821  0.37109946    -0.11900
C186        C  0.32017673  0.38472795  0.39939918    -0.11900
C187        C  0.34544917  0.42540587  0.39925997     0.10300
C188        C  0.33616780  0.44816919  0.37130567    -0.11900
H189        H  0.29778916  0.44942477  0.32247095     0.14200
H190        H  0.26944852  0.33595231  0.37125293     0.14200
H191        H  0.32598631  0.36636995  0.42102901     0.14200
H192        H  0.35395505  0.47950850  0.37022952     0.14200
C193        C  0.13525811  0.21235332  0.12727267    -0.11900
C194        C  0.11131141  0.22098331  0.15377439     0.10300
C195        C  0.07076457  0.19703229  0.15062743    -0.11900
C196        C  0.05442527  0.16457567  0.12293138    -0.11900
C197        C  0.07812357  0.15497795  0.09692570     0.10300
C198        C  0.11883193  0.17998208  0.09883823    -0.11900
H199        H  0.16666629  0.23034747  0.12884038     0.14200
H200        H  0.05137170  0.20276979  0.17047398     0.14200
H201        H  0.02300362  0.14716577  0.12242923     0.14200
H202        H  0.13795844  0.17393688  0.07889437     0.14200
C203        C  0.12808994  0.19517394  0.34473070    -0.11900
C204        C  0.11340970  0.22070844  0.34583514     0.10300
C205        C  0.08345498  0.21341526  0.37618678    -0.11900
C206        C  0.06810507  0.18085839  0.40432066    -0.11900
C207        C  0.08181084  0.15436634  0.40227747     0.10300
C208        C  0.11246641  0.16242182  0.37228037    -0.11900
H209        H  0.15103076  0.19983038  0.32150684     0.14200
H210        H  0.07161752  0.23264468  0.37788078     0.14200
H211        H  0.04482752  0.17581277  0.42722482     0.14200
H212        H  0.12443394  0.14341502  0.36938159     0.14200
Fe213      Fe  0.19562047  0.30533076  0.74800161     1.65800
Fe214      Fe  0.10825053  0.30227696  0.75167360     1.73200
Fe215      Fe  0.19269178  0.38948177  0.75108153     1.54400
O216        O  0.23599998  0.39484403  0.79301174    -0.80200
O217        O  0.10281929  0.33262606  0.69832211    -0.77900
O218        O  0.23088490  0.33688407  0.80106758    -0.82700
O219        O  0.23536566  0.34370600  0.70221643    -0.77600
O220        O  0.16228213  0.39101402  0.80682062    -0.79400
O221        O  0.10462654  0.26108095  0.70702314    -0.82100
C222        C  0.24287417  0.37553081  0.68388868     0.98700
C223        C  0.24649440  0.37268484  0.81084674     1.06100
O224        O  0.16554640  0.33234675  0.75021380    -1.11100
O225        O  0.10745424  0.26877449  0.80513789    -0.73500
O226        O  0.15958485  0.26288692  0.79290127    -0.77000
O227        O  0.22632079  0.39437987  0.69567722    -0.77700
C228        C  0.12781682  0.25304988  0.81317338     0.97600
O229        O  0.16408499  0.27069339  0.69484452    -0.75700
O230        O  0.10359212  0.33915345  0.79655505    -0.80800
C231        C  0.12119797  0.36887616  0.69001987     1.00200
C232        C  0.12624715  0.37093013  0.81623878     1.06100
O233        O  0.15308132  0.39219773  0.70912382    -0.76500
C234        C  0.12784350  0.25312265  0.68672291     1.04400
C235        C  0.11853711  0.05776353  0.56927192    -0.01000
C236        C  0.43785764  0.38124741  0.93221327    -0.01000
C237        C  0.11975947  0.05573748  0.93362519    -0.01000
C238        C  0.05697573  0.43627119  0.93547525    -0.01000
C239        C  0.05521053  0.43811541  0.57149874    -0.01000
C240        C  0.43567206  0.38096054  0.56840747    -0.01000
C241        C  0.37743453  0.44172527  0.56453498    -0.01000
C242        C  0.06313055  0.11807979  0.93184976    -0.01000
C243        C  0.44359173  0.06307219  0.93106753    -0.01000
C244        C  0.38137762  0.44358722  0.92926650    -0.01000
C245        C  0.44144234  0.06099657  0.56626147    -0.01000
C246        C  0.06067248  0.11881739  0.56719695    -0.01000
Fe247      Fe  0.39177197  0.19748009  0.74793934     1.65800
Fe248      Fe  0.30409757  0.19377691  0.75118722     1.73200
Fe249      Fe  0.30698330  0.10993778  0.74989555     1.54400
O250        O  0.34588563  0.10705180  0.70665532    -0.80200
O251        O  0.27128113  0.16227479  0.80575899    -0.78500
O252        O  0.39562082  0.16668359  0.69429381    -0.82700
O253        O  0.39739937  0.16089528  0.79256003    -0.77600
O254        O  0.27237487  0.10538023  0.69556066    -0.79400
O255        O  0.34144850  0.23622339  0.79465194    -0.82100
C256        C  0.37495492  0.12903008  0.81251508     0.98700
C257        C  0.37743417  0.13040123  0.68680220     1.06100
O258        O  0.33437212  0.16714103  0.74960581    -1.11100
O259        O  0.33360974  0.22857536  0.69717401    -0.73500
O260        O  0.39357878  0.23756389  0.70259880    -0.77000
O261        O  0.33873825  0.10882010  0.80410987    -0.77700
C262        C  0.36913495  0.24535721  0.68530446     0.97600
O263        O  0.39509900  0.23227727  0.80155633    -0.75700
O264        O  0.26242584  0.15486249  0.70775034    -0.80800
C265        C  0.25473801  0.12611761  0.81390675     1.00200
C266        C  0.25436830  0.12359581  0.68762627     1.06100
O267        O  0.26393722  0.10391754  0.79356613    -0.76500
C268        C  0.37434574  0.24703306  0.81231453     1.04400
C269        C  0.43551283  0.11886427  0.59268838    -0.11900
C270        C  0.42511479  0.07953690  0.59787995     0.10300
C271        C  0.40030872  0.05843308  0.63383232    -0.11900
C272        C  0.38453679  0.07501381  0.66156313    -0.11900
C273        C  0.39396555  0.11371154  0.65551079     0.10300
C274        C  0.42018118  0.13582202  0.62129405    -0.11900
H275        H  0.45539976  0.13637226  0.56628170     0.14200
H276        H  0.39344061  0.02915522  0.64158619     0.14200
H277        H  0.36555568  0.05761479  0.68867937     0.14200
H278        H  0.42848584  0.16598724  0.61640948     0.14200
C279        C  0.48327608  0.07774702  0.57324411    -0.11800
C280        C  0.01832559  0.09434396  0.57273449    -0.13400
C281        C  0.44954426  0.11309202  0.87223767    -0.11900
C282        C  0.42632518  0.08189253  0.90140519     0.10300
C283        C  0.38592748  0.06804519  0.90279018    -0.11900
C284        C  0.36913993  0.08379312  0.87478694    -0.11900
C285        C  0.39242428  0.11426866  0.84520714     0.10300
C286        C  0.43282932  0.12907394  0.84480108    -0.11900
H287        H  0.48072288  0.12527950  0.86996337     0.14200
H288        H  0.36723168  0.04440312  0.92510626     0.14200
H289        H  0.33790908  0.07184212  0.87595481     0.14200
H290        H  0.45160965  0.15242588  0.82221918     0.14200
C291        C  0.43646162  0.06762095  0.51895130    -0.11800
C292        C  0.43764198  0.06824002  0.97855511    -0.13400
C293        C  0.42432541  0.02099290  0.92309406    -0.11800
C294        C  0.40637174  0.48589326  0.92301200    -0.13400
C295        C  0.06763379  0.12955908  0.51968694    -0.11800
C296        C  0.06853311  0.12901124  0.97933108    -0.13400
C297        C  0.48578391  0.07946796  0.92466080    -0.11800
C298        C  0.02089049  0.09543735  0.92429293    -0.13400
C299        C  0.40308721  0.48364411  0.57135961    -0.11800
C300        C  0.42233279  0.01861624  0.57157328    -0.13400
C301        C  0.36958304  0.43747874  0.97642987    -0.11800
C302        C  0.36823527  0.43656354  0.51673583    -0.13400
C303        C  0.43183243  0.31904375  0.59732423    -0.11900
C304        C  0.41604831  0.34380837  0.59653851     0.10300
C305        C  0.38233535  0.33320123  0.62242032    -0.11900
C306        C  0.36596881  0.29995338  0.64917850    -0.11900
C307        C  0.38325134  0.27683564  0.65179315     0.10300
C308        C  0.41608271  0.28637125  0.62526534    -0.11900
H309        H  0.45721461  0.32576785  0.57728015     0.14200
H310        H  0.36856632  0.35065617  0.62287183     0.14200
H311        H  0.34074762  0.29335131  0.66949535     0.14200
H312        H  0.42983987  0.26882235  0.62655404     0.14200
C313        C  0.41817783  0.40564712  0.57478439    -0.11800
C314        C  0.40047386  0.42296324  0.57407768    -0.13400
C315        C  0.01298337  0.42065589  0.57950178    -0.11800
C316        C  0.47774688  0.40401765  0.57837631    -0.13400
C317        C  0.06018477  0.43148031  0.52404913    -0.11800
C318        C  0.06086700  0.43083159  0.98357466    -0.13400
C319        C  0.18144350  0.11435592  0.90344922    -0.11900
C320        C  0.15625701  0.07368832  0.90409675     0.10300
C321        C  0.16570528  0.05076443  0.87659559    -0.11900
C322        C  0.19830871  0.06791022  0.84870727    -0.11900
C323        C  0.22241953  0.10849034  0.84688858     0.10300
C324        C  0.21383683  0.13156907  0.87484752    -0.11900
H325        H  0.17542637  0.13290022  0.92443540     0.14200
H326        H  0.14796596  0.01941907  0.87600185     0.14200
H327        H  0.20399780  0.04920224  0.82760556     0.14200
H328        H  0.23191614  0.16294541  0.87432050     0.14200
C329        C  0.07954658  0.09246833  0.92513667    -0.11800
C330        C  0.09625484  0.07415842  0.92510600    -0.13400
C331        C  0.09483708  0.01347213  0.92744227    -0.11800
C332        C  0.07678070  0.47838603  0.92748025    -0.13400
C333        C  0.38683637  0.33466992  0.87581181    -0.11900
C334        C  0.41959421  0.34470997  0.90296734     0.10300
C335        C  0.43566837  0.32013858  0.90212413    -0.11900
C336        C  0.42106607  0.28818556  0.87308707    -0.11900
C337        C  0.38908460  0.27915013  0.84535418     0.10300
C338        C  0.37174884  0.30234274  0.84783423    -0.11900
H339        H  0.37262701  0.35174062  0.87559583     0.14200
H340        H  0.46034129  0.32638759  0.92314316     0.14200
H341        H  0.43489227  0.27069878  0.87220658     0.14200
H342        H  0.34696631  0.29621306  0.82707049     0.14200
C343        C  0.43190969  0.37101840  0.98001853    -0.11800
C344        C  0.43174295  0.37126376  0.52047552    -0.13400
C345        C  0.01518112  0.42039292  0.92713382    -0.11800
C346        C  0.48013572  0.40420237  0.92536082    -0.13400
C347        C  0.42159301  0.40676292  0.92391351    -0.11800
C348        C  0.40503532  0.42516552  0.92232755    -0.13400
C349        C  0.17940386  0.05954244  0.60033739    -0.11900
C350        C  0.15474700  0.07552962  0.59921022     0.10300
C351        C  0.16494324  0.10853709  0.62588827    -0.11900
C352        C  0.19774469  0.12433103  0.65309822    -0.11900
C353        C  0.22155930  0.10768865  0.65529207     0.10300
C354        C  0.21219159  0.07516825  0.62839724    -0.11900
H355        H  0.17286757  0.03451568  0.57991871     0.14200
H356        H  0.14779563  0.12266958  0.62621056     0.14200
H357        H  0.20390097  0.14937302  0.67328346     0.14200
H358        H  0.22998644  0.06166989  0.62925431     0.14200
C359        C  0.09329472  0.01578205  0.57728666    -0.11800
C360        C  0.07404014  0.48067049  0.57707668    -0.13400
C361        C  0.13020099  0.06173690  0.98131748    -0.11800
C362        C  0.12972742  0.06238559  0.52174671    -0.13400
C363        C  0.09476751  0.07626494  0.57537022    -0.11800
C364        C  0.07816293  0.09462297  0.57590177    -0.13400
C365        C  0.12149240  0.42616861  0.65614867    -0.11900
C366        C  0.10489691  0.38563884  0.65824740     0.10300
C367        C  0.07231598  0.36223306  0.63141567    -0.11900
C368        C  0.05676736  0.37922969  0.60318445    -0.11900
C369        C  0.07287194  0.41995497  0.60184191     0.10300
C370        C  0.10575183  0.44302184  0.62876679    -0.11900
H371        H  0.14652900  0.44521187  0.67640953     0.14200
H372        H  0.05884106  0.33087324  0.63226687     0.14200
H373        H  0.03180055  0.36055233  0.58266133     0.14200
H374        H  0.11986959  0.47436815  0.62908385     0.14200
C375        C  0.28454336  0.36779614  0.62647634    -0.11900
C376        C  0.27349044  0.39178389  0.64889483     0.10300
C377        C  0.29412125  0.43185241  0.64018910    -0.11900
C378        C  0.32677895  0.44792314  0.61216879    -0.11900
C379        C  0.33993053  0.42440974  0.59228812     0.10300
C380        C  0.31686462  0.38383490  0.59787932    -0.11900
H381        H  0.26860889  0.33662082  0.63170115     0.14200
H382        H  0.28590545  0.45102986  0.65631917     0.14200
H383        H  0.34157868  0.47886240  0.60619980     0.14200
H384        H  0.32463456  0.36455754  0.58118747     0.14200
C385        C  0.13222365  0.41614400  0.87900602    -0.11900
C386        C  0.10901326  0.38552939  0.84966624     0.10300
C387        C  0.06852623  0.37011180  0.85023476    -0.11900
C388        C  0.05167115  0.38574392  0.87793308    -0.11900
C389        C  0.07470127  0.41720221  0.90669554     0.10300
C390        C  0.11520495  0.43143626  0.90758190    -0.11900
H391        H  0.16352949  0.42856536  0.87949655     0.14200
H392        H  0.04969804  0.34658173  0.82803567     0.14200
H393        H  0.02045406  0.37312444  0.87595068     0.14200
H394        H  0.13382581  0.45525957  0.92955598     0.14200
C395        C  0.30349164  0.43084552  0.84384963    -0.11900
C396        C  0.27924331  0.39025816  0.84287620     0.10300
C397        C  0.28775942  0.36730817  0.87109964    -0.11900
C398        C  0.32017676  0.38472797  0.89939929    -0.11900
C399        C  0.34544929  0.42540587  0.89925995     0.10300
C400        C  0.33616792  0.44816917  0.87130560    -0.11900
H401        H  0.29778927  0.44942469  0.82247088     0.14200
H402        H  0.26944845  0.33595226  0.87125322     0.14200
H403        H  0.32598635  0.36636997  0.92102931     0.14200
H404        H  0.35395519  0.47950848  0.87022937     0.14200
C405        C  0.13525815  0.21235355  0.62727256    -0.11900
C406        C  0.11131142  0.22098345  0.65377430     0.10300
C407        C  0.07076460  0.19703228  0.65062744    -0.11900
C408        C  0.05442540  0.16457569  0.62293138    -0.11900
C409        C  0.07812375  0.15497807  0.59692564     0.10300
C410        C  0.11883211  0.17998230  0.59883815    -0.11900
H411        H  0.16666643  0.23034783  0.62884034     0.14200
H412        H  0.05137166  0.20276961  0.67047417     0.14200
H413        H  0.02300378  0.14716568  0.62242934     0.14200
H414        H  0.13795867  0.17393716  0.57889436     0.14200
C415        C  0.12808991  0.19517380  0.84473071    -0.11900
C416        C  0.11340970  0.22070832  0.84583520     0.10300
C417        C  0.08345498  0.21341517  0.87618685    -0.11900
C418        C  0.06810506  0.18085832  0.90432078    -0.11900
C419        C  0.08181080  0.15436625  0.90227759     0.10300
C420        C  0.11246630  0.16242168  0.87228040    -0.11900
H421        H  0.15103061  0.19983017  0.82150686     0.14200
H422        H  0.07161752  0.23264456  0.87788081     0.14200
H423        H  0.04482750  0.17581272  0.92722490     0.14200
H424        H  0.12443374  0.14341477  0.86938148     0.14200
Fe425      Fe  0.19562067  0.80533079  0.24800168     1.65800
Fe426      Fe  0.10825079  0.80227705  0.25167367     1.73200
Fe427      Fe  0.19269200  0.88948184  0.25108159     1.54400
O428        O  0.23600023  0.89484406  0.29301175    -0.80200
O429        O  0.10281952  0.83262607  0.19832212    -0.77900
O430        O  0.23088515  0.83688408  0.30106761    -0.82700
O431        O  0.23536581  0.84370605  0.20221647    -0.77600
O432        O  0.16228242  0.89101410  0.30682072    -0.79400
O433        O  0.10462673  0.76108095  0.20702331    -0.82100
C434        C  0.24287431  0.87553084  0.18388869     0.98700
C435        C  0.24649464  0.87268486  0.31084676     1.06100
O436        O  0.16554665  0.83234682  0.25021387    -1.11100
O437        O  0.10745445  0.76877466  0.30513804    -0.73500
O438        O  0.15958496  0.76288695  0.29290133    -0.77000
O439        O  0.22632092  0.89437991  0.19567723    -0.77700
C440        C  0.12781699  0.75304999  0.31317349     0.97600
O441        O  0.16408519  0.77069343  0.19484459    -0.75700
O442        O  0.10359242  0.83915356  0.29655509    -0.80800
C443        C  0.12119813  0.86887619  0.19001996     1.00200
C444        C  0.12624746  0.87093024  0.31623884     1.06100
O445        O  0.15308146  0.89219778  0.20912398    -0.76500
C446        C  0.12784368  0.75312259  0.18672310     1.04400
C447        C  0.11853707  0.55776348  0.06927194    -0.01000
C448        C  0.43785781  0.88124754  0.43221312    -0.01000
C449        C  0.11975941  0.55573743  0.43362511    -0.01000
C450        C  0.05697592  0.93627120  0.43547536    -0.01000
C451        C  0.05521072  0.93811545  0.07149877    -0.01000
C452        C  0.43567216  0.88096056  0.06840731    -0.01000
C453        C  0.37743462  0.94172525  0.06453498    -0.01000
C454        C  0.06313061  0.61807994  0.43184987    -0.01000
C455        C  0.44359177  0.56307226  0.43106761    -0.01000
C456        C  0.38137770  0.94358726  0.42926654    -0.01000
C457        C  0.44144234  0.56099653  0.06626145    -0.01000
C458        C  0.06067248  0.61881736  0.06719715    -0.01000
Fe459      Fe  0.39177203  0.69748017  0.24793930     1.65800
Fe460      Fe  0.30409762  0.69377695  0.25118713     1.73200
Fe461      Fe  0.30698337  0.60993784  0.24989559     1.54400
O462        O  0.34588574  0.60705179  0.20665543    -0.80200
O463        O  0.27128122  0.66227490  0.30575899    -0.78500
O464        O  0.39562087  0.66668361  0.19429382    -0.82700
O465        O  0.39739958  0.66089549  0.29256004    -0.77600
O466        O  0.27237489  0.60538012  0.19556066    -0.79400
O467        O  0.34144857  0.73622352  0.29465182    -0.82100
C468        C  0.37495510  0.62903032  0.31251509     0.98700
C469        C  0.37743425  0.63040124  0.18680224     1.06100
O470        O  0.33437216  0.66714107  0.24960567    -1.11100
O471        O  0.33360975  0.72857535  0.19717376    -0.73500
O472        O  0.39357878  0.73756388  0.20259863    -0.77000
O473        O  0.33873842  0.60882042  0.30410994    -0.77700
C474        C  0.36913497  0.74535718  0.18530422     0.97600
O475        O  0.39509903  0.73227735  0.30155629    -0.75700
O476        O  0.26242587  0.65486242  0.20775034    -0.80800
C477        C  0.25473805  0.62611771  0.31390675     1.00200
C478        C  0.25436832  0.62359573  0.18762628     1.06100
O479        O  0.26393727  0.60391766  0.29356616    -0.76500
C480        C  0.37434583  0.74703321  0.31231440     1.04400
C481        C  0.43551282  0.61886424  0.09268833    -0.11900
C482        C  0.42511485  0.57953691  0.09787993     0.10300
C483        C  0.40030892  0.55843313  0.13383241    -0.11900
C484        C  0.38453701  0.57501388  0.16156323    -0.11900
C485        C  0.39396564  0.61371157  0.15551079     0.10300
C486        C  0.42018116  0.63582201  0.12129393    -0.11900
H487        H  0.45539978  0.63637226  0.06628154     0.14200
H488        H  0.39344088  0.52915531  0.14158629     0.14200
H489        H  0.36555598  0.55761491  0.18867956     0.14200
H490        H  0.42848569  0.66598718  0.11640929     0.14200
C491        C  0.48327606  0.57774699  0.07324410    -0.11800
C492        C  0.01832562  0.59434394  0.07273461    -0.13400
C493        C  0.44954440  0.61309226  0.37223778    -0.11900
C494        C  0.42632528  0.58189271  0.40140526     0.10300
C495        C  0.38592756  0.56804535  0.40279023    -0.11900
C496        C  0.36914007  0.58379333  0.37478693    -0.11900
C497        C  0.39242441  0.61426883  0.34520712     0.10300
C498        C  0.43282946  0.62907414  0.34480110    -0.11900
H499        H  0.48072298  0.62527973  0.36996346     0.14200
H500        H  0.36723181  0.54440334  0.42510617     0.14200
H501        H  0.33790917  0.57184237  0.37595485     0.14200
H502        H  0.45160978  0.65242605  0.32221920     0.14200
C503        C  0.43646161  0.56762091  0.01895126    -0.11800
C504        C  0.43764201  0.56824003  0.47855523    -0.13400
C505        C  0.42432540  0.52099293  0.42309409    -0.11800
C506        C  0.40637178  0.98589330  0.42301207    -0.13400
C507        C  0.06763383  0.62955913  0.01968717    -0.11800
C508        C  0.06853322  0.62901145  0.47933120    -0.13400
C509        C  0.48578395  0.57946806  0.42466086    -0.11800
C510        C  0.02089056  0.59543753  0.42429302    -0.13400
C511        C  0.40308726  0.98364411  0.07135961    -0.11800
C512        C  0.42233277  0.51861617  0.07157328    -0.13400
C513        C  0.36958316  0.93747873  0.47642991    -0.11800
C514        C  0.36823543  0.93656342  0.01673582    -0.13400
C515        C  0.43183248  0.81904370  0.09732395    -0.11900
C516        C  0.41604839  0.84380835  0.09653830     0.10300
C517        C  0.38233539  0.83320118  0.12242006    -0.11900
C518        C  0.36596877  0.79995326  0.14917812    -0.11900
C519        C  0.38325137  0.77683558  0.15179286     0.10300
C520        C  0.41608280  0.78637119  0.12526512    -0.11900
H521        H  0.45721464  0.82576777  0.07727983     0.14200
H522        H  0.36856637  0.85065609  0.12287160     0.14200
H523        H  0.34074754  0.79335115  0.16949479     0.14200
H524        H  0.42983994  0.76882239  0.12655392     0.14200
C525        C  0.41817791  0.90564712  0.07478427    -0.11800
C526        C  0.40047396  0.92296325  0.07407774    -0.13400
C527        C  0.01298356  0.92065590  0.07950176    -0.11800
C528        C  0.47774701  0.90401769  0.07837614    -0.13400
C529        C  0.06018501  0.93148033  0.02404919    -0.11800
C530        C  0.06086705  0.93083159  0.48357480    -0.13400
C531        C  0.18144349  0.61435592  0.40344928    -0.11900
C532        C  0.15625695  0.57368829  0.40409664     0.10300
C533        C  0.16570522  0.55076446  0.37659536    -0.11900
C534        C  0.19830868  0.56791029  0.34870708    -0.11900
C535        C  0.22241952  0.60849043  0.34688850     0.10300
C536        C  0.21383683  0.63156909  0.37484754    -0.11900
H537        H  0.17542641  0.63290012  0.42443553     0.14200
H538        H  0.14796590  0.51941909  0.37600150     0.14200
H539        H  0.20399776  0.54920235  0.32760534     0.14200
H540        H  0.23191618  0.66294544  0.37432068     0.14200
C541        C  0.07954655  0.59246837  0.42513677    -0.11800
C542        C  0.09625476  0.57415840  0.42510606    -0.13400
C543        C  0.09483706  0.51347212  0.42744211    -0.11800
C544        C  0.07678090  0.97838602  0.42748032    -0.13400
C545        C  0.38683685  0.83467031  0.37581135    -0.11900
C546        C  0.41959447  0.84471016  0.40296713     0.10300
C547        C  0.43566850  0.82013861  0.40212412    -0.11900
C548        C  0.42106611  0.78818558  0.37308704    -0.11900
C549        C  0.38908481  0.77915036  0.34535393     0.10300
C550        C  0.37174930  0.80234318  0.34783377    -0.11900
H551        H  0.37262763  0.85174119  0.37559519     0.14200
H552        H  0.46034124  0.82638747  0.42314321     0.14200
H553        H  0.43489214  0.77069862  0.37220670     0.14200
H554        H  0.34696682  0.79621364  0.32706979     0.14200
C555        C  0.43190970  0.87101848  0.48001836    -0.11800
C556        C  0.43174303  0.87126377  0.02047539    -0.13400
C557        C  0.01518134  0.92039296  0.42713377    -0.11800
C558        C  0.48013588  0.90420244  0.42536082    -0.13400
C559        C  0.42159318  0.90676306  0.42391326    -0.11800
C560        C  0.40503543  0.92516562  0.42232739    -0.13400
C561        C  0.17940387  0.55954250  0.10033736    -0.11900
C562        C  0.15474691  0.57552955  0.09921032     0.10300
C563        C  0.16494309  0.60853693  0.12588855    -0.11900
C564        C  0.19774462  0.62433094  0.15309834    -0.11900
C565        C  0.22155931  0.60768864  0.15529207     0.10300
C566        C  0.21219163  0.57516832  0.12839712    -0.11900
H567        H  0.17286760  0.53451574  0.07991856     0.14200
H568        H  0.14779536  0.62266932  0.12621105     0.14200
H569        H  0.20390093  0.64937299  0.17328360     0.14200
H570        H  0.22998657  0.56167005  0.12925407     0.14200
C571        C  0.09329465  0.51578200  0.07728667    -0.11800
C572        C  0.07404024  0.98067053  0.07707673    -0.13400
C573        C  0.13020093  0.56173674  0.48131741    -0.11800
C574        C  0.12972743  0.56238561  0.02174671    -0.13400
C575        C  0.09476750  0.57626490  0.07537024    -0.11800
C576        C  0.07816292  0.59462293  0.07590186    -0.13400
C577        C  0.12149244  0.92616865  0.15614897    -0.11900
C578        C  0.10489707  0.88563888  0.15824751     0.10300
C579        C  0.07231623  0.86223305  0.13141566    -0.11900
C580        C  0.05676763  0.87922973  0.10318444    -0.11900
C581        C  0.07287211  0.91995499  0.10184196     0.10300
C582        C  0.10575189  0.94302186  0.12876700    -0.11900
H583        H  0.14652881  0.94521186  0.17641002     0.14200
H584        H  0.05884144  0.83087335  0.13226679     0.14200
H585        H  0.03180082  0.86055231  0.08266123     0.14200
H586        H  0.11986956  0.97436817  0.12908421     0.14200
C587        C  0.28454356  0.86779617  0.12647644    -0.11900
C588        C  0.27349055  0.89178391  0.14889482     0.10300
C589        C  0.29412123  0.93185240  0.14018889    -0.11900
C590        C  0.32677892  0.94792312  0.11216854    -0.11900
C591        C  0.33993062  0.92440974  0.09228809     0.10300
C592        C  0.31686481  0.88383493  0.09787943    -0.11900
H593        H  0.26860917  0.83662087  0.13170136     0.14200
H594        H  0.28590535  0.95102984  0.15631885     0.14200
H595        H  0.34157856  0.97886236  0.10619938     0.14200
H596        H  0.32463480  0.86455758  0.08118766     0.14200
C597        C  0.13222392  0.91614418  0.37900601    -0.11900
C598        C  0.10901354  0.88552951  0.34966627     0.10300
C599        C  0.06852649  0.87011182  0.35023486    -0.11900
C600        C  0.05167138  0.88574393  0.37793318    -0.11900
C601        C  0.07470147  0.91720224  0.40669566     0.10300
C602        C  0.11520515  0.93143633  0.40758199    -0.11900
H603        H  0.16352975  0.92856562  0.37949646     0.14200
H604        H  0.04969834  0.84658172  0.32803585     0.14200
H605        H  0.02045429  0.87312436  0.37595080     0.14200
H606        H  0.13382598  0.95525963  0.42955614     0.14200
C607        C  0.30349165  0.93084554  0.34384991    -0.11900
C608        C  0.27924351  0.89025818  0.34287624     0.10300
C609        C  0.28775973  0.86730817  0.37109949    -0.11900
C610        C  0.32017702  0.88472797  0.39939923    -0.11900
C611        C  0.34544938  0.92540591  0.39926003     0.10300
C612        C  0.33616792  0.94816922  0.37130583    -0.11900
H613        H  0.29778910  0.94942477  0.32247136     0.14200
H614        H  0.26944895  0.83595225  0.37125285     0.14200
H615        H  0.32598668  0.86637001  0.42102904     0.14200
H616        H  0.35395508  0.97950853  0.37022975     0.14200
C617        C  0.13525821  0.71235334  0.12727280    -0.11900
C618        C  0.11131152  0.72098327  0.15377463     0.10300
C619        C  0.07076470  0.69703222  0.15062777    -0.11900
C620        C  0.05442540  0.66457563  0.12293169    -0.11900
C621        C  0.07812370  0.65497796  0.09692594     0.10300
C622        C  0.11883205  0.67998209  0.09883836    -0.11900
H623        H  0.16666639  0.73034748  0.12884045     0.14200
H624        H  0.05137184  0.70276969  0.17047445     0.14200
H625        H  0.02300375  0.64716572  0.12242961     0.14200
H626        H  0.13795849  0.67393691  0.07889448     0.14200
C627        C  0.12808996  0.69517384  0.34473076    -0.11900
C628        C  0.11340987  0.72070848  0.34583537     0.10300
C629        C  0.08345531  0.71341546  0.37618717    -0.11900
C630        C  0.06810524  0.68085853  0.40432098    -0.11900
C631        C  0.08181086  0.65436635  0.40227766     0.10300
C632        C  0.11246628  0.66242170  0.37228043    -0.11900
H633        H  0.15103055  0.69983012  0.32150686     0.14200
H634        H  0.07161800  0.73264501  0.37788133     0.14200
H635        H  0.04482774  0.67581298  0.42722514     0.14200
H636        H  0.12443364  0.64341469  0.36938147     0.14200
Fe637      Fe  0.19562058  0.80533087  0.74800160     1.65800
Fe638      Fe  0.10825071  0.80227711  0.75167361     1.73200
Fe639      Fe  0.19269195  0.88948189  0.75108153     1.54400
O640        O  0.23600011  0.89484404  0.79301175    -0.80200
O641        O  0.10281952  0.83262619  0.69832209    -0.77900
O642        O  0.23088506  0.83688410  0.80106755    -0.82700
O643        O  0.23536574  0.84370606  0.70221636    -0.77600
O644        O  0.16228230  0.89101418  0.80682059    -0.79400
O645        O  0.10462661  0.76108098  0.70702325    -0.82100
C646        C  0.24287428  0.87553089  0.68388863     0.98700
C647        C  0.24649454  0.87268485  0.81084674     1.06100
O648        O  0.16554657  0.83234688  0.75021380    -1.11100
O649        O  0.10745434  0.76877468  0.80513797    -0.73500
O650        O  0.15958496  0.76288715  0.79290132    -0.77000
O651        O  0.22632093  0.89437998  0.69567723    -0.77700
C652        C  0.12781697  0.75305011  0.81317348     0.97600
O653        O  0.16408506  0.77069345  0.69484457    -0.75700
O654        O  0.10359234  0.83915359  0.79655503    -0.80800
C655        C  0.12119816  0.86887628  0.69001985     1.00200
C656        C  0.12624735  0.87093026  0.81623876     1.06100
O657        O  0.15308150  0.89219786  0.70912382    -0.76500
C658        C  0.12784355  0.75312261  0.68672305     1.04400
C659        C  0.11853708  0.55776346  0.56927197    -0.01000
C660        C  0.43785781  0.88124749  0.93221325    -0.01000
C661        C  0.11975949  0.55573751  0.93362504    -0.01000
C662        C  0.05697589  0.93627116  0.93547542    -0.01000
C663        C  0.05521069  0.93811549  0.57149874    -0.01000
C664        C  0.43567219  0.88096058  0.56840731    -0.01000
C665        C  0.37743474  0.94172539  0.56453498    -0.01000
C666        C  0.06313069  0.61807998  0.93184988    -0.01000
C667        C  0.44359181  0.56307229  0.93106753    -0.01000
C668        C  0.38137767  0.94358718  0.92926656    -0.01000
C669        C  0.44144237  0.56099647  0.56626162    -0.01000
C670        C  0.06067239  0.61881730  0.56719717    -0.01000
Fe671      Fe  0.39177208  0.69748017  0.74793925     1.65800
Fe672      Fe  0.30409770  0.69377697  0.75118711     1.73200
Fe673      Fe  0.30698340  0.60993782  0.74989557     1.54400
O674        O  0.34588569  0.60705174  0.70665536    -0.80200
O675        O  0.27128129  0.66227496  0.80575894    -0.78500
O676        O  0.39562081  0.66668357  0.69429376    -0.82700
O677        O  0.39739959  0.66089548  0.79256004    -0.77600
O678        O  0.27237484  0.60538016  0.69556077    -0.79400
O679        O  0.34144865  0.73622358  0.79465174    -0.82100
C680        C  0.37495511  0.62903031  0.81251512     0.98700
C681        C  0.37743421  0.63040120  0.68680222     1.06100
O682        O  0.33437223  0.66714106  0.74960578    -1.11100
O683        O  0.33360973  0.72857528  0.69717371    -0.73500
O684        O  0.39357879  0.73756386  0.70259857    -0.77000
O685        O  0.33873846  0.60882030  0.80410984    -0.77700
C686        C  0.36913495  0.74535715  0.68530417     0.97600
O687        O  0.39509914  0.73227747  0.80155618    -0.75700
O688        O  0.26242589  0.65486249  0.70775035    -0.80800
C689        C  0.25473813  0.62611776  0.81390668     1.00200
C690        C  0.25436826  0.62359574  0.68762639     1.06100
O691        O  0.26393739  0.60391770  0.79356614    -0.76500
C692        C  0.37434591  0.74703330  0.81231431     1.04400
C693        C  0.43551286  0.61886416  0.59268849    -0.11900
C694        C  0.42511486  0.57953683  0.59788016     0.10300
C695        C  0.40030880  0.55843297  0.63383256    -0.11900
C696        C  0.38453690  0.57501379  0.66156338    -0.11900
C697        C  0.39396562  0.61371150  0.65551088     0.10300
C698        C  0.42018115  0.63582194  0.62129405    -0.11900
H699        H  0.45539976  0.63637211  0.56628182     0.14200
H700        H  0.39344067  0.52915524  0.64158636     0.14200
H701        H  0.36555587  0.55761486  0.68867958     0.14200
H702        H  0.42848573  0.66598708  0.61640935     0.14200
C703        C  0.48327609  0.57774689  0.57324430    -0.11800
C704        C  0.01832550  0.59434391  0.57273465    -0.13400
C705        C  0.44954436  0.61309236  0.87223797    -0.11900
C706        C  0.42632526  0.58189269  0.90140526     0.10300
C707        C  0.38592752  0.56804519  0.90279013    -0.11900
C708        C  0.36914000  0.58379318  0.87478687    -0.11900
C709        C  0.39242439  0.61426890  0.84520729     0.10300
C710        C  0.43282947  0.62907437  0.84480142    -0.11900
H711        H  0.48072300  0.62527993  0.86996369     0.14200
H712        H  0.36723173  0.54440305  0.92510598     0.14200
H713        H  0.33790911  0.57184205  0.87595456     0.14200
H714        H  0.45160976  0.65242635  0.82221974     0.14200
C715        C  0.43646169  0.56762093  0.51895142    -0.11800
C716        C  0.43764201  0.56824002  0.97855510    -0.13400
C717        C  0.42432553  0.52099298  0.92309401    -0.11800
C718        C  0.40637168  0.98589320  0.92301205    -0.13400
C719        C  0.06763371  0.62955907  0.51968718    -0.11800
C720        C  0.06853338  0.62901149  0.97933120    -0.13400
C721        C  0.48578399  0.57946815  0.92466080    -0.11800
C722        C  0.02089061  0.59543762  0.92429314    -0.13400
C723        C  0.40308731  0.98364425  0.57135958    -0.11800
C724        C  0.42233273  0.51861612  0.57157334    -0.13400
C725        C  0.36958310  0.93747863  0.97642993    -0.11800
C726        C  0.36823555  0.93656358  0.51673580    -0.13400
C727        C  0.43183262  0.81904379  0.59732415    -0.11900
C728        C  0.41604841  0.84380835  0.59653829     0.10300
C729        C  0.38233532  0.83320111  0.62241990    -0.11900
C730        C  0.36596864  0.79995316  0.64917790    -0.11900
C731        C  0.38325128  0.77683554  0.65179281     0.10300
C732        C  0.41608284  0.78637126  0.62526528    -0.11900
H733        H  0.45721487  0.82576794  0.57728029     0.14200
H734        H  0.36856627  0.85065605  0.62287132     0.14200
H735        H  0.34074725  0.79335097  0.66949447     0.14200
H736        H  0.42984004  0.76882249  0.62655422     0.14200
C737        C  0.41817800  0.90564720  0.57478436    -0.11800
C738        C  0.40047412  0.92296342  0.57407776    -0.13400
C739        C  0.01298351  0.92065590  0.57950173    -0.11800
C740        C  0.47774701  0.90401764  0.57837615    -0.13400
C741        C  0.06018492  0.93148033  0.52404915    -0.11800
C742        C  0.06086716  0.93083158  0.98357484    -0.13400
C743        C  0.18144362  0.61435596  0.90344925    -0.11900
C744        C  0.15625703  0.57368836  0.90409657     0.10300
C745        C  0.16570515  0.55076444  0.87659516    -0.11900
C746        C  0.19830859  0.56791034  0.84870681    -0.11900
C747        C  0.22241956  0.60849044  0.84688837     0.10300
C748        C  0.21383697  0.63156912  0.87484752    -0.11900
H749        H  0.17542660  0.63290021  0.92443552     0.14200
H750        H  0.14796584  0.51941924  0.87600124     0.14200
H751        H  0.20399753  0.54920234  0.82760484     0.14200
H752        H  0.23191635  0.66294545  0.87432068     0.14200
C753        C  0.07954663  0.59246844  0.92513671    -0.11800
C754        C  0.09625491  0.57415855  0.92510598    -0.13400
C755        C  0.09483702  0.51347218  0.92744206    -0.11800
C756        C  0.07678081  0.97838598  0.92748040    -0.13400
C757        C  0.38683675  0.83467028  0.87581146    -0.11900
C758        C  0.41959442  0.84471016  0.90296715     0.10300
C759        C  0.43566845  0.82013861  0.90212411    -0.11900
C760        C  0.42106605  0.78818562  0.87308703    -0.11900
C761        C  0.38908482  0.77915041  0.84535391     0.10300
C762        C  0.37174921  0.80234318  0.84783378    -0.11900
H763        H  0.37262747  0.85174113  0.87559540     0.14200
H764        H  0.46034117  0.82638747  0.92314319     0.14200
H765        H  0.43489212  0.77069859  0.87220671     0.14200
H766        H  0.34696684  0.79621367  0.82706985     0.14200
C767        C  0.43190968  0.87101834  0.98001844    -0.11800
C768        C  0.43174312  0.87126390  0.52047532    -0.13400
C769        C  0.01518127  0.92039289  0.92713403    -0.11800
C770        C  0.48013588  0.90420239  0.92536103    -0.13400
C771        C  0.42159325  0.90676307  0.92391350    -0.11800
C772        C  0.40503547  0.92516558  0.92232755    -0.13400
C773        C  0.17940392  0.55954251  0.60033741    -0.11900
C774        C  0.15474693  0.57552953  0.59921035     0.10300
C775        C  0.16494303  0.60853686  0.62588861    -0.11900
C776        C  0.19774443  0.62433076  0.65309861    -0.11900
C777        C  0.22155919  0.60768857  0.65529225     0.10300
C778        C  0.21219167  0.57516836  0.62839716    -0.11900
H779        H  0.17286770  0.53451578  0.57991858     0.14200
H780        H  0.14779530  0.62266923  0.62621105     0.14200
H781        H  0.20390060  0.64937266  0.67328408     0.14200
H782        H  0.22998671  0.56167021  0.62925401     0.14200
C783        C  0.09329468  0.51578196  0.57728665    -0.11800
C784        C  0.07404026  0.98067058  0.57707666    -0.13400
C785        C  0.13020101  0.56173686  0.98131735    -0.11800
C786        C  0.12972744  0.56238555  0.52174677    -0.13400
C787        C  0.09476746  0.57626487  0.57537025    -0.11800
C788        C  0.07816283  0.59462286  0.57590192    -0.13400
C789        C  0.12149232  0.92616865  0.65614900    -0.11900
C790        C  0.10489704  0.88563890  0.65824741     0.10300
C791        C  0.07231625  0.86223308  0.63141545    -0.11900
C792        C  0.05676766  0.87922979  0.60318426    -0.11900
C793        C  0.07287207  0.91995504  0.60184194     0.10300
C794        C  0.10575174  0.94302188  0.62876715    -0.11900
H795        H  0.14652870  0.94521184  0.67641007     0.14200
H796        H  0.05884154  0.83087338  0.63226645     0.14200
H797        H  0.03180090  0.86055239  0.58266087     0.14200
H798        H  0.11986932  0.97436819  0.62908450     0.14200
C799        C  0.28454351  0.86779625  0.62647623    -0.11900
C800        C  0.27349057  0.89178398  0.64889478     0.10300
C801        C  0.29412140  0.93185250  0.64018910    -0.11900
C802        C  0.32677911  0.94792325  0.61216879    -0.11900
C803        C  0.33993070  0.92440987  0.59228807     0.10300
C804        C  0.31686476  0.88383504  0.59787918    -0.11900
H805        H  0.26860909  0.83662096  0.63170103     0.14200
H806        H  0.28590558  0.95102989  0.65631924     0.14200
H807        H  0.34157884  0.97886255  0.60619980     0.14200
H808        H  0.32463465  0.86455769  0.58118721     0.14200
C809        C  0.13222379  0.91614398  0.87900603    -0.11900
C810        C  0.10901341  0.88552943  0.84966623     0.10300
C811        C  0.06852637  0.87011182  0.85023479    -0.11900
C812        C  0.05167128  0.88574394  0.87793312    -0.11900
C813        C  0.07470142  0.91720220  0.90669563     0.10300
C814        C  0.11520512  0.93143622  0.90758200    -0.11900
H815        H  0.16352965  0.92856532  0.87949654     0.14200
H816        H  0.04969816  0.84658174  0.82803568     0.14200
H817        H  0.02045424  0.87312446  0.87595072     0.14200
H818        H  0.13382598  0.95525942  0.92955610     0.14200
C819        C  0.30349145  0.93084553  0.84385011    -0.11900
C820        C  0.27924340  0.89025817  0.84287626     0.10300
C821        C  0.28775966  0.86730814  0.87109945    -0.11900
C822        C  0.32017703  0.88472792  0.89939911    -0.11900
C823        C  0.34544933  0.92540585  0.89926001     0.10300
C824        C  0.33616773  0.94816924  0.87130608    -0.11900
H825        H  0.29778885  0.94942480  0.82247161     0.14200
H826        H  0.26944887  0.83595223  0.87125284     0.14200
H827        H  0.32598672  0.86636998  0.92102881     0.14200
H828        H  0.35395467  0.97950844  0.87023020     0.14200
C829        C  0.13525812  0.71235327  0.62727288    -0.11900
C830        C  0.11131143  0.72098330  0.65377453     0.10300
C831        C  0.07076461  0.69703229  0.65062750    -0.11900
C832        C  0.05442537  0.66457564  0.62293155    -0.11900
C833        C  0.07812367  0.65497792  0.59692592     0.10300
C834        C  0.11883205  0.67998206  0.59883842    -0.11900
H835        H  0.16666641  0.73034745  0.62884072     0.14200
H836        H  0.05137168  0.70276983  0.67047403     0.14200
H837        H  0.02300373  0.64716575  0.62242939     0.14200
H838        H  0.13795851  0.67393689  0.57889461     0.14200
C839        C  0.12809011  0.69517403  0.84473088    -0.11900
C840        C  0.11340996  0.72070861  0.84583538     0.10300
C841        C  0.08345528  0.71341544  0.87618710    -0.11900
C842        C  0.06810530  0.68085852  0.90432088    -0.11900
C843        C  0.08181094  0.65436639  0.90227765     0.10300
C844        C  0.11246647  0.66242183  0.87228046    -0.11900
H845        H  0.15103085  0.69983041  0.82150691     0.14200
H846        H  0.07161787  0.73264488  0.87788115     0.14200
H847        H  0.04482769  0.67581289  0.92722509     0.14200
H848        H  0.12443386  0.64341489  0.86938155     0.14200
Fe849      Fe  0.69562050  0.30533083  0.24800162     1.65800
Fe850      Fe  0.60825054  0.30227699  0.25167345     1.73200
Fe851      Fe  0.69269179  0.38948181  0.25108154     1.54400
O852        O  0.73599994  0.39484406  0.29301180    -0.80200
O853        O  0.60281925  0.33262607  0.19832197    -0.77900
O854        O  0.73088498  0.33688414  0.30106750    -0.82700
O855        O  0.73536566  0.34370607  0.20221640    -0.77600
O856        O  0.66228213  0.39101404  0.30682067    -0.79400
O857        O  0.60462652  0.26108100  0.20702297    -0.82100
C858        C  0.74287423  0.37553093  0.18388869     0.98700
C859        C  0.74649446  0.37268490  0.31084666     1.06100
O860        O  0.66554645  0.33234680  0.25021379    -1.11100
O861        O  0.60745411  0.26877445  0.30513770    -0.73500
O862        O  0.65958492  0.26288714  0.29290138    -0.77000
O863        O  0.72632090  0.39438003  0.19567730    -0.77700
C864        C  0.62781682  0.25304999  0.31317335     0.97600
O865        O  0.66408498  0.27069339  0.19484454    -0.75700
O866        O  0.60359216  0.33915345  0.29655499    -0.80800
C867        C  0.62119796  0.36887616  0.19001974     1.00200
C868        C  0.62624714  0.37093012  0.31623876     1.06100
O869        O  0.65308134  0.39219766  0.20912369    -0.76500
C870        C  0.62784349  0.25312263  0.18672288     1.04400
C871        C  0.61853708  0.05776351  0.06927200    -0.01000
C872        C  0.93785763  0.38124749  0.43221334    -0.01000
C873        C  0.61975942  0.05573744  0.43362507    -0.01000
C874        C  0.55697570  0.43627118  0.43547534    -0.01000
C875        C  0.55521064  0.43811547  0.07149862    -0.01000
C876        C  0.93567214  0.38096059  0.06840740    -0.01000
C877        C  0.87743460  0.44172534  0.06453495    -0.01000
C878        C  0.56313064  0.11807995  0.43184969    -0.01000
C879        C  0.94359181  0.06307231  0.43106759    -0.01000
C880        C  0.88137747  0.44358720  0.42926659    -0.01000
C881        C  0.94144229  0.06099651  0.06626146    -0.01000
C882        C  0.56067237  0.11881728  0.06719702    -0.01000
Fe883      Fe  0.89177203  0.19748020  0.24793932     1.65800
Fe884      Fe  0.80409766  0.19377699  0.25118716     1.73200
Fe885      Fe  0.80698338  0.10993787  0.24989558     1.54400
O886        O  0.84588570  0.10705181  0.20665543    -0.80200
O887        O  0.77128131  0.16227494  0.30575903    -0.78500
O888        O  0.89562078  0.16668363  0.19429379    -0.82700
O889        O  0.89739951  0.16089549  0.29256007    -0.77600
O890        O  0.77237496  0.10538023  0.19556063    -0.79400
O891        O  0.84144867  0.23622364  0.29465173    -0.82100
C892        C  0.87495502  0.12903036  0.31251520     0.98700
C893        C  0.87743421  0.13040127  0.18680225     1.06100
O894        O  0.83437219  0.16714111  0.24960582    -1.11100
O895        O  0.83360969  0.22857532  0.19717377    -0.73500
O896        O  0.89357875  0.23756390  0.20259868    -0.77000
O897        O  0.83873835  0.10882041  0.30410998    -0.77700
C898        C  0.86913494  0.24535720  0.18530428     0.97600
O899        O  0.89509909  0.23227740  0.30155634    -0.75700
O900        O  0.76242585  0.15486244  0.20775044    -0.80800
C901        C  0.75473809  0.12611773  0.31390670     1.00200
C902        C  0.75436831  0.12359577  0.18762635     1.06100
O903        O  0.76393724  0.10391766  0.29356603    -0.76500
C904        C  0.87434589  0.24703331  0.31231437     1.04400
C905        C  0.93551291  0.11886426  0.09268847    -0.11900
C906        C  0.92511481  0.07953690  0.09787998     0.10300
C907        C  0.90030870  0.05843301  0.13383234    -0.11900
C908        C  0.88453681  0.07501382  0.16156316    -0.11900
C909        C  0.89396563  0.11371158  0.15551086     0.10300
C910        C  0.92018130  0.13582206  0.12129413    -0.11900
H911        H  0.95539991  0.13637229  0.06628180     0.14200
H912        H  0.89344054  0.02915527  0.14158611     0.14200
H913        H  0.86555566  0.05761477  0.18867932     0.14200
H914        H  0.92848599  0.16598726  0.11640960     0.14200
C915        C  0.98327601  0.07774691  0.07324407    -0.11800
C916        C  0.51832551  0.09434382  0.07273449    -0.13400
C917        C  0.94954435  0.11309240  0.37223800    -0.11900
C918        C  0.92632527  0.08189272  0.40140531     0.10300
C919        C  0.88592753  0.06804525  0.40279020    -0.11900
C920        C  0.86913997  0.08379323  0.37478697    -0.11900
C921        C  0.89242432  0.11426891  0.34520733     0.10300
C922        C  0.93282937  0.12907428  0.34480143    -0.11900
H923        H  0.98072300  0.12527996  0.36996377     0.14200
H924        H  0.86723178  0.04440312  0.42510608     0.14200
H925        H  0.83790908  0.07184209  0.37595471     0.14200
H926        H  0.95160972  0.15242633  0.32221951     0.14200
C927        C  0.93646160  0.06762095  0.01895126    -0.11800
C928        C  0.93764202  0.06824006  0.47855516    -0.13400
C929        C  0.92432550  0.02099300  0.42309408    -0.11800
C930        C  0.90637157  0.48589323  0.42301208    -0.13400
C931        C  0.56763361  0.12955899  0.01968703    -0.11800
C932        C  0.56853329  0.12901150  0.47933098    -0.13400
C933        C  0.98578399  0.07946809  0.42466085    -0.11800
C934        C  0.52089058  0.09543754  0.42429293    -0.13400
C935        C  0.90308722  0.48364421  0.07135961    -0.11800
C936        C  0.92233268  0.01861616  0.07157325    -0.13400
C937        C  0.86958291  0.43747871  0.47642994    -0.11800
C938        C  0.86823535  0.43656359  0.01673577    -0.13400
C939        C  0.93183257  0.31904384  0.09732429    -0.11900
C940        C  0.91604840  0.34380843  0.09653848     0.10300
C941        C  0.88233533  0.33320121  0.12242015    -0.11900
C942        C  0.86596875  0.29995332  0.14917820    -0.11900
C943        C  0.88325131  0.27683565  0.15179301     0.10300
C944        C  0.91608282  0.28637131  0.12526539    -0.11900
H945        H  0.95721476  0.32576794  0.07728034     0.14200
H946        H  0.86856627  0.35065610  0.12287157     0.14200
H947        H  0.84074735  0.29335115  0.16949494     0.14200
H948        H  0.92983995  0.26882248  0.12655423     0.14200
C949        C  0.91817790  0.40564718  0.07478427    -0.11800
C950        C  0.90047395  0.42296332  0.07407765    -0.13400
C951        C  0.51298350  0.42065594  0.07950170    -0.11800
C952        C  0.97774697  0.40401771  0.07837618    -0.13400
C953        C  0.56018484  0.43148035  0.02404900    -0.11800
C954        C  0.56086687  0.43083159  0.48357478    -0.13400
C955        C  0.68144355  0.11435594  0.40344929    -0.11900
C956        C  0.65625696  0.07368832  0.40409660     0.10300
C957        C  0.66570513  0.05076449  0.37659519    -0.11900
C958        C  0.69830854  0.06791031  0.34870684    -0.11900
C959        C  0.72241953  0.10849043  0.34688843     0.10300
C960        C  0.71383691  0.13156910  0.37484755    -0.11900
H961        H  0.67542650  0.13290016  0.42443556     0.14200
H962        H  0.64796574  0.01941913  0.37600125     0.14200
H963        H  0.70399747  0.04920236  0.32760494     0.14200
H964        H  0.73191630  0.16294545  0.37432072     0.14200
C965        C  0.57954658  0.09246840  0.42513666    -0.11800
C966        C  0.59625478  0.07415842  0.42510600    -0.13400
C967        C  0.59483707  0.01347211  0.42744207    -0.11800
C968        C  0.57678068  0.47838598  0.42748031    -0.13400
C969        C  0.88683663  0.33467027  0.37581152    -0.11900
C970        C  0.91959430  0.34471015  0.40296725     0.10300
C971        C  0.93566838  0.32013866  0.40212418    -0.11900
C972        C  0.92106603  0.28818564  0.37308709    -0.11900
C973        C  0.88908479  0.27915044  0.34535393     0.10300
C974        C  0.87174915  0.30234318  0.34783381    -0.11900
H975        H  0.87262734  0.35174104  0.37559545     0.14200
H976        H  0.96034111  0.32638752  0.42314326     0.14200
H977        H  0.93489208  0.27069868  0.37220679     0.14200
H978        H  0.84696676  0.29621366  0.32706990     0.14200
C979        C  0.93190959  0.37101838  0.48001856    -0.11800
C980        C  0.93174301  0.37126376  0.02047549    -0.13400
C981        C  0.51518110  0.42039295  0.42713385    -0.11800
C982        C  0.98013569  0.40420247  0.42536101    -0.13400
C983        C  0.92159293  0.40676296  0.42391360    -0.11800
C984        C  0.90503517  0.42516550  0.42232762    -0.13400
C985        C  0.67940395  0.05954258  0.10033738    -0.11900
C986        C  0.65474694  0.07552959  0.09921038     0.10300
C987        C  0.66494303  0.10853690  0.12588867    -0.11900
C988        C  0.69774444  0.12433080  0.15309866    -0.11900
C989        C  0.72155925  0.10768863  0.15529221     0.10300
C990        C  0.71219174  0.07516846  0.12839708    -0.11900
H991        H  0.67286772  0.03451586  0.07991857     0.14200
H992        H  0.64779529  0.12266927  0.12621112     0.14200
H993        H  0.70390059  0.14937269  0.17328411     0.14200
H994        H  0.72998682  0.06167033  0.12925387     0.14200
C995        C  0.59329473  0.01578200  0.07728669    -0.11800
C996        C  0.57404022  0.48067054  0.07707663    -0.13400
C997        C  0.63020089  0.06173676  0.48131738    -0.11800
C998        C  0.62972745  0.06238566  0.02174680    -0.13400
C999        C  0.59476749  0.07626492  0.07537025    -0.11800
C1000       C  0.57816287  0.09462292  0.07590180    -0.13400
C1001       C  0.62149250  0.42616865  0.15614848    -0.11900
C1002       C  0.60489695  0.38563888  0.15824728     0.10300
C1003       C  0.57231606  0.36223310  0.13141551    -0.11900
C1004       C  0.55676744  0.37922974  0.10318433    -0.11900
C1005       C  0.57287204  0.41995500  0.10184173     0.10300
C1006       C  0.60575195  0.44302188  0.12876658    -0.11900
H1007       H  0.64652912  0.44521190  0.17640933     0.14200
H1008       H  0.55884121  0.33087329  0.13226668     0.14200
H1009       H  0.53180053  0.36055233  0.08266121     0.14200
H1010       H  0.61986970  0.47436819  0.12908362     0.14200
C1011       C  0.78454335  0.36779623  0.12647619    -0.11900
C1012       C  0.77349049  0.39178399  0.14889480     0.10300
C1013       C  0.79412137  0.43185252  0.14018914    -0.11900
C1014       C  0.82677907  0.44792322  0.11216883    -0.11900
C1015       C  0.83993060  0.42440981  0.09228808     0.10300
C1016       C  0.81686462  0.38383497  0.09787918    -0.11900
H1017       H  0.76860883  0.33662090  0.13170099     0.14200
H1018       H  0.78590562  0.45102997  0.15631930     0.14200
H1019       H  0.84157884  0.47886252  0.10619990     0.14200
H1020       H  0.82463453  0.36455760  0.08118727     0.14200
C1021       C  0.63222359  0.41614408  0.37900579    -0.11900
C1022       C  0.60901319  0.38552938  0.34966617     0.10300
C1023       C  0.56852610  0.37011167  0.35023484    -0.11900
C1024       C  0.55167108  0.38574389  0.37793318    -0.11900
C1025       C  0.57470123  0.41720221  0.40669558     0.10300
C1026       C  0.61520494  0.43143632  0.40758179    -0.11900
H1027       H  0.66352946  0.42856547  0.37949622     0.14200
H1028       H  0.54969791  0.34658155  0.32803601     0.14200
H1029       H  0.52045396  0.37312433  0.37595089     0.14200
H1030       H  0.63382585  0.45525962  0.42955584     0.14200
C1031       C  0.80349165  0.43084557  0.34384957    -0.11900
C1032       C  0.77924341  0.39025822  0.34287603     0.10300
C1033       C  0.78775951  0.36730820  0.37109942    -0.11900
C1034       C  0.82017675  0.38472796  0.39939923    -0.11900
C1035       C  0.84544917  0.42540588  0.39926002     0.10300
C1036       C  0.83616781  0.44816920  0.37130570    -0.11900
H1037       H  0.79778925  0.44942475  0.32247082     0.14200
H1038       H  0.76944861  0.33595228  0.37125290     0.14200
H1039       H  0.82598631  0.36636998  0.42102914     0.14200
H1040       H  0.85395504  0.47950852  0.37022960     0.14200
C1041       C  0.63525807  0.21235333  0.12727269    -0.11900
C1042       C  0.61131138  0.22098332  0.15377437     0.10300
C1043       C  0.57076454  0.19703226  0.15062742    -0.11900
C1044       C  0.55442529  0.16457566  0.12293134    -0.11900
C1045       C  0.57812361  0.15497795  0.09692572     0.10300
C1046       C  0.61883198  0.17998208  0.09883829    -0.11900
H1047       H  0.66666635  0.23034756  0.12884044     0.14200
H1048       H  0.55137163  0.20276970  0.17047403     0.14200
H1049       H  0.52300366  0.14716575  0.12242916     0.14200
H1050       H  0.63795850  0.17393687  0.07889449     0.14200
C1051       C  0.62809006  0.19517395  0.34473070    -0.11900
C1052       C  0.61340980  0.22070846  0.34583516     0.10300
C1053       C  0.58345511  0.21341530  0.37618682    -0.11900
C1054       C  0.56810518  0.18085843  0.40432065    -0.11900
C1055       C  0.58181086  0.15436633  0.40227746     0.10300
C1056       C  0.61246643  0.16242178  0.37228034    -0.11900
H1057       H  0.65103081  0.19983034  0.32150691     0.14200
H1058       H  0.57161767  0.23264473  0.37788080     0.14200
H1059       H  0.54482756  0.17581283  0.42722487     0.14200
H1060       H  0.62443391  0.14341492  0.36938154     0.14200
Fe1061     Fe  0.69562056  0.30533078  0.74800160     1.65800
Fe1062     Fe  0.60825063  0.30227699  0.75167360     1.73200
Fe1063     Fe  0.69269179  0.38948180  0.75108153     1.54400
O1064       O  0.73599993  0.39484401  0.79301176    -0.80200
O1065       O  0.60281929  0.33262605  0.69832212    -0.77900
O1066       O  0.73088502  0.33688410  0.80106752    -0.82700
O1067       O  0.73536569  0.34370606  0.70221641    -0.77600
O1068       O  0.66228215  0.39101396  0.80682069    -0.79400
O1069       O  0.60462663  0.26108096  0.70702320    -0.82100
C1070       C  0.74287418  0.37553087  0.68388865     0.98700
C1071       C  0.74649440  0.37268485  0.81084674     1.06100
O1072       O  0.66554651  0.33234678  0.75021380    -1.11100
O1073       O  0.60745428  0.26877452  0.80513789    -0.73500
O1074       O  0.65958488  0.26288693  0.79290129    -0.77000
O1075       O  0.72632079  0.39437994  0.69567718    -0.77700
C1076       C  0.62781684  0.25304990  0.81317338     0.97600
O1077       O  0.66408507  0.27069340  0.69484448    -0.75700
O1078       O  0.60359216  0.33915346  0.79655501    -0.80800
C1079       C  0.62119794  0.36887615  0.69001987     1.00200
C1080       C  0.62624717  0.37093010  0.81623879     1.06100
O1081       O  0.65308128  0.39219773  0.70912385    -0.76500
C1082       C  0.62784357  0.25312265  0.68672292     1.04400
C1083       C  0.61853708  0.05776352  0.56927196    -0.01000
C1084       C  0.93785761  0.38124742  0.93221333    -0.01000
C1085       C  0.61975945  0.05573748  0.93362516    -0.01000
C1086       C  0.55697577  0.43627124  0.93547524    -0.01000
C1087       C  0.55521051  0.43811542  0.57149873    -0.01000
C1088       C  0.93567205  0.38096053  0.56840748    -0.01000
C1089       C  0.87743458  0.44172529  0.56453497    -0.01000
C1090       C  0.56313056  0.11807984  0.93184977    -0.01000
C1091       C  0.94359172  0.06307219  0.93106753    -0.01000
C1092       C  0.88137755  0.44358722  0.92926651    -0.01000
C1093       C  0.94144236  0.06099657  0.56626149    -0.01000
C1094       C  0.56067244  0.11881738  0.56719696    -0.01000
Fe1095     Fe  0.89177205  0.19748011  0.74793931     1.65800
Fe1096     Fe  0.80409758  0.19377688  0.75118723     1.73200
Fe1097     Fe  0.80698335  0.10993778  0.74989556     1.54400
O1098       O  0.84588570  0.10705178  0.70665539    -0.80200
O1099       O  0.77128109  0.16227479  0.80575898    -0.78500
O1100       O  0.89562082  0.16668359  0.69429376    -0.82700
O1101       O  0.89739947  0.16089526  0.79255999    -0.77600
O1102       O  0.77237490  0.10538015  0.69556064    -0.79400
O1103       O  0.84144845  0.23622341  0.79465195    -0.82100
C1104       C  0.87495500  0.12903010  0.81251507     0.98700
C1105       C  0.87743418  0.13040123  0.68680218     1.06100
O1106       O  0.83437219  0.16714104  0.74960583    -1.11100
O1107       O  0.83360975  0.22857535  0.69717402    -0.73500
O1108       O  0.89357881  0.23756384  0.70259868    -0.77000
O1109       O  0.83873832  0.10882015  0.80410988    -0.77700
C1110       C  0.86913496  0.24535719  0.68530442     0.97600
O1111       O  0.89509897  0.23227727  0.80155632    -0.75700
O1112       O  0.76242586  0.15486242  0.70775037    -0.80800
C1113       C  0.75473798  0.12611761  0.81390671     1.00200
C1114       C  0.75436831  0.12359574  0.68762630     1.06100
O1115       O  0.76393723  0.10391757  0.79356611    -0.76500
C1116       C  0.87434571  0.24703306  0.81231453     1.04400
C1117       C  0.93551283  0.11886427  0.59268840    -0.11900
C1118       C  0.92511483  0.07953692  0.59787999     0.10300
C1119       C  0.90030870  0.05843308  0.63383230    -0.11900
C1120       C  0.88453671  0.07501378  0.66156308    -0.11900
C1121       C  0.89396553  0.11371154  0.65551074     0.10300
C1122       C  0.92018117  0.13582203  0.62129402    -0.11900
H1123       H  0.95539980  0.13637229  0.56628170     0.14200
H1124       H  0.89344055  0.02915519  0.64158613     0.14200
H1125       H  0.86555561  0.05761480  0.68867923     0.14200
H1126       H  0.92848583  0.16598723  0.61640950     0.14200
C1127       C  0.98327611  0.07774702  0.57324409    -0.11800
C1128       C  0.51832555  0.09434395  0.57273450    -0.13400
C1129       C  0.94954426  0.11309203  0.87223769    -0.11900
C1130       C  0.92632518  0.08189254  0.90140520     0.10300
C1131       C  0.88592746  0.06804517  0.90279019    -0.11900
C1132       C  0.86913997  0.08379312  0.87478693    -0.11900
C1133       C  0.89242428  0.11426865  0.84520714     0.10300
C1134       C  0.93282931  0.12907391  0.84480110    -0.11900
H1135       H  0.98072288  0.12527949  0.86996337     0.14200
H1136       H  0.86723167  0.04440313  0.92510624     0.14200
H1137       H  0.83790897  0.07184205  0.87595476     0.14200
H1138       H  0.95160967  0.15242587  0.82221908     0.14200
C1139       C  0.93646161  0.06762096  0.51895131    -0.11800
C1140       C  0.93764194  0.06824002  0.97855509    -0.13400
C1141       C  0.92432540  0.02099290  0.92309406    -0.11800
C1142       C  0.90637168  0.48589326  0.92301200    -0.13400
C1143       C  0.56763373  0.12955908  0.51968695    -0.11800
C1144       C  0.56853314  0.12901135  0.97933108    -0.13400
C1145       C  0.98578390  0.07946793  0.92466080    -0.11800
C1146       C  0.52089050  0.09543741  0.92429295    -0.13400
C1147       C  0.90308725  0.48364413  0.57135962    -0.11800
C1148       C  0.92233283  0.01861623  0.57157328    -0.13400
C1149       C  0.86958297  0.43747874  0.97642988    -0.11800
C1150       C  0.86823537  0.43656355  0.51673582    -0.13400
C1151       C  0.93183237  0.31904368  0.59732420    -0.11900
C1152       C  0.91604831  0.34380834  0.59653850     0.10300
C1153       C  0.88233535  0.33320122  0.62242032    -0.11900
C1154       C  0.86596879  0.29995337  0.64917847    -0.11900
C1155       C  0.88325131  0.27683562  0.65179314     0.10300
C1156       C  0.91608271  0.28637120  0.62526536    -0.11900
H1157       H  0.95721455  0.32576770  0.57728001     0.14200
H1158       H  0.86856635  0.35065616  0.62287181     0.14200
H1159       H  0.84074758  0.29335131  0.66949530     0.14200
H1160       H  0.92983982  0.26882236  0.62655414     0.14200
C1161       C  0.91817780  0.40564709  0.57478441    -0.11800
C1162       C  0.90047388  0.42296325  0.57407772    -0.13400
C1163       C  0.51298337  0.42065589  0.57950181    -0.11800
C1164       C  0.97774688  0.40401766  0.57837630    -0.13400
C1165       C  0.56018471  0.43148031  0.52404912    -0.11800
C1166       C  0.56086696  0.43083159  0.98357465    -0.13400
C1167       C  0.68144347  0.11435592  0.90344922    -0.11900
C1168       C  0.65625697  0.07368829  0.90409669     0.10300
C1169       C  0.66570522  0.05076442  0.87659544    -0.11900
C1170       C  0.69830862  0.06791022  0.84870708    -0.11900
C1171       C  0.72241948  0.10849034  0.84688850     0.10300
C1172       C  0.71383680  0.13156906  0.87484748    -0.11900
H1173       H  0.67542637  0.13290014  0.92443537     0.14200
H1174       H  0.64796589  0.01941905  0.87600159     0.14200
H1175       H  0.70399763  0.04920228  0.82760525     0.14200
H1176       H  0.73191612  0.16294541  0.87432052     0.14200
C1177       C  0.57954656  0.09246834  0.92513670    -0.11800
C1178       C  0.59625480  0.07415841  0.92510598    -0.13400
C1179       C  0.59483709  0.01347215  0.92744225    -0.11800
C1180       C  0.57678075  0.47838606  0.92748028    -0.13400
C1181       C  0.88683643  0.33466998  0.87581181    -0.11900
C1182       C  0.91959423  0.34470999  0.90296736     0.10300
C1183       C  0.93566842  0.32013861  0.90212414    -0.11900
C1184       C  0.92106605  0.28818556  0.87308708    -0.11900
C1185       C  0.88908461  0.27915016  0.84535416     0.10300
C1186       C  0.87174894  0.30234286  0.84783414    -0.11900
H1187       H  0.87262708  0.35174069  0.87559587     0.14200
H1188       H  0.96034127  0.32638761  0.92314307     0.14200
H1189       H  0.93489222  0.27069872  0.87220663     0.14200
H1190       H  0.84696645  0.29621326  0.82707027     0.14200
C1191       C  0.93190958  0.37101837  0.98001855    -0.11800
C1192       C  0.93174295  0.37126376  0.52047553    -0.13400
C1193       C  0.51518115  0.42039299  0.92713375    -0.11800
C1194       C  0.98013569  0.40420237  0.92536099    -0.13400
C1195       C  0.92159296  0.40676293  0.92391353    -0.11800
C1196       C  0.90503525  0.42516551  0.92232755    -0.13400
C1197       C  0.67940385  0.05954246  0.60033742    -0.11900
C1198       C  0.65474697  0.07552961  0.59921031     0.10300
C1199       C  0.66494316  0.10853703  0.62588847    -0.11900
C1200       C  0.69774462  0.12433095  0.65309844    -0.11900
C1201       C  0.72155928  0.10768862  0.65529213     0.10300
C1202       C  0.71219160  0.07516828  0.62839721    -0.11900
H1203       H  0.67286758  0.03451572  0.57991871     0.14200
H1204       H  0.64779555  0.12266951  0.62621083     0.14200
H1205       H  0.70390085  0.14937287  0.67328371     0.14200
H1206       H  0.72998646  0.06166997  0.62925418     0.14200
C1207       C  0.59329465  0.01578202  0.57728667    -0.11800
C1208       C  0.57404010  0.48067050  0.57707668    -0.13400
C1209       C  0.63020096  0.06173691  0.98131745    -0.11800
C1210       C  0.62972738  0.06238557  0.52174672    -0.13400
C1211       C  0.59476752  0.07626496  0.57537023    -0.11800
C1212       C  0.57816292  0.09462298  0.57590176    -0.13400
C1213       C  0.62149238  0.42616861  0.65614867    -0.11900
C1214       C  0.60489691  0.38563884  0.65824736     0.10300
C1215       C  0.57231596  0.36223306  0.63141567    -0.11900
C1216       C  0.55676734  0.37922969  0.60318445    -0.11900
C1217       C  0.57287195  0.41995498  0.60184187     0.10300
C1218       C  0.60575181  0.44302184  0.62876680    -0.11900
H1219       H  0.64652895  0.44521186  0.67640960     0.14200
H1220       H  0.55884101  0.33087324  0.63226694     0.14200
H1221       H  0.53180050  0.36055233  0.58266140     0.14200
H1222       H  0.61986954  0.47436815  0.62908392     0.14200
C1223       C  0.78454346  0.36779616  0.62647640    -0.11900
C1224       C  0.77349048  0.39178391  0.64889483     0.10300
C1225       C  0.79412130  0.43185241  0.64018908    -0.11900
C1226       C  0.82677895  0.44792313  0.61216871    -0.11900
C1227       C  0.83993057  0.42440975  0.59228807     0.10300
C1228       C  0.81686473  0.38383492  0.59787938    -0.11900
H1229       H  0.76860903  0.33662083  0.63170127     0.14200
H1230       H  0.78590546  0.45102987  0.65631915     0.14200
H1231       H  0.84157862  0.47886239  0.60619961     0.14200
H1232       H  0.82463470  0.36455756  0.58118758     0.14200
C1233       C  0.63222366  0.41614401  0.87900596    -0.11900
C1234       C  0.60901326  0.38552939  0.84966621     0.10300
C1235       C  0.56852623  0.37011187  0.85023475    -0.11900
C1236       C  0.55167120  0.38574409  0.87793299    -0.11900
C1237       C  0.57470133  0.41720234  0.90669547     0.10300
C1238       C  0.61520501  0.43143634  0.90758179    -0.11900
H1239       H  0.66352951  0.42856529  0.87949647     0.14200
H1240       H  0.54969798  0.34658176  0.82803573     0.14200
H1241       H  0.52045410  0.37312464  0.87595058     0.14200
H1242       H  0.63382595  0.45525969  0.92955591     0.14200
C1243       C  0.80349159  0.43084553  0.84384961    -0.11900
C1244       C  0.77924326  0.39025817  0.84287624     0.10300
C1245       C  0.78775938  0.36730818  0.87109965    -0.11900
C1246       C  0.82017672  0.38472799  0.89939927    -0.11900
C1247       C  0.84544922  0.42540587  0.89925996     0.10300
C1248       C  0.83616786  0.44816917  0.87130561    -0.11900
H1249       H  0.79778923  0.44942465  0.82247085     0.14200
H1250       H  0.76944844  0.33595227  0.87125315     0.14200
H1251       H  0.82598633  0.36636994  0.92102928     0.14200
H1252       H  0.85395514  0.47950849  0.87022936     0.14200
C1253       C  0.63525811  0.21235354  0.62727254    -0.11900
C1254       C  0.61131140  0.22098344  0.65377431     0.10300
C1255       C  0.57076458  0.19703231  0.65062742    -0.11900
C1256       C  0.55442535  0.16457572  0.62293136    -0.11900
C1257       C  0.57812369  0.15497806  0.59692565     0.10300
C1258       C  0.61883204  0.17998229  0.59883815    -0.11900
H1259       H  0.66666637  0.23034780  0.62884030     0.14200
H1260       H  0.55137161  0.20276967  0.67047413     0.14200
H1261       H  0.52300371  0.14716576  0.62242928     0.14200
H1262       H  0.63795861  0.17393715  0.57889435     0.14200
C1263       C  0.62808989  0.19517381  0.84473070    -0.11900
C1264       C  0.61340967  0.22070833  0.84583520     0.10300
C1265       C  0.58345494  0.21341515  0.87618683    -0.11900
C1266       C  0.56810504  0.18085831  0.90432077    -0.11900
C1267       C  0.58181081  0.15436626  0.90227759     0.10300
C1268       C  0.61246629  0.16242170  0.87228038    -0.11900
H1269       H  0.65103059  0.19983019  0.82150687     0.14200
H1270       H  0.57161744  0.23264452  0.87788081     0.14200
H1271       H  0.54482748  0.17581267  0.92722487     0.14200
H1272       H  0.62443376  0.14341478  0.86938143     0.14200
Fe1273     Fe  0.69562062  0.80533078  0.24800168     1.65800
Fe1274     Fe  0.60825071  0.80227702  0.25167367     1.73200
Fe1275     Fe  0.69269195  0.88948179  0.25108158     1.54400
O1276       O  0.73600017  0.89484405  0.29301178    -0.80200
O1277       O  0.60281949  0.83262609  0.19832213    -0.77900
O1278       O  0.73088509  0.83688408  0.30106763    -0.82700
O1279       O  0.73536585  0.84370607  0.20221651    -0.77600
O1280       O  0.66228233  0.89101404  0.30682069    -0.79400
O1281       O  0.60462666  0.76108093  0.20702330    -0.82100
C1282       C  0.74287430  0.87553083  0.18388869     0.98700
C1283       C  0.74649458  0.87268486  0.31084678     1.06100
O1284       O  0.66554659  0.83234679  0.25021386    -1.11100
O1285       O  0.60745437  0.76877464  0.30513805    -0.73500
O1286       O  0.65958489  0.76288693  0.29290132    -0.77000
O1287       O  0.72632088  0.89437986  0.19567723    -0.77700
C1288       C  0.62781692  0.75304997  0.31317349     0.97600
O1289       O  0.66408512  0.77069342  0.19484458    -0.75700
O1290       O  0.60359231  0.83915350  0.29655509    -0.80800
C1291       C  0.62119814  0.86887619  0.19001989     1.00200
C1292       C  0.62624735  0.87093016  0.31623884     1.06100
O1293       O  0.65308149  0.89219776  0.20912387    -0.76500
C1294       C  0.62784360  0.75312258  0.18672309     1.04400
C1295       C  0.61853712  0.55776349  0.06927188    -0.01000
C1296       C  0.93785786  0.88124749  0.43221312    -0.01000
C1297       C  0.61975940  0.55573740  0.43362511    -0.01000
C1298       C  0.55697591  0.93627117  0.43547538    -0.01000
C1299       C  0.55521068  0.93811543  0.07149874    -0.01000
C1300       C  0.93567223  0.88096054  0.06840732    -0.01000
C1301       C  0.87743468  0.94172526  0.06453500    -0.01000
C1302       C  0.56313061  0.61807991  0.43184987    -0.01000
C1303       C  0.94359179  0.56307226  0.43106756    -0.01000
C1304       C  0.88137778  0.94358724  0.42926652    -0.01000
C1305       C  0.94144244  0.56099657  0.06626148    -0.01000
C1306       C  0.56067240  0.61881731  0.06719715    -0.01000
Fe1307     Fe  0.89177207  0.69748017  0.24793931     1.65800
Fe1308     Fe  0.80409760  0.69377691  0.25118712     1.73200
Fe1309     Fe  0.80698340  0.60993781  0.24989559     1.54400
O1310       O  0.84588572  0.60705178  0.20665540    -0.80200
O1311       O  0.77128112  0.66227482  0.30575892    -0.78500
O1312       O  0.89562086  0.66668361  0.19429381    -0.82700
O1313       O  0.89739950  0.66089538  0.29256007    -0.77600
O1314       O  0.77237489  0.60538014  0.19556069    -0.79400
O1315       O  0.84144851  0.73622349  0.29465182    -0.82100
C1316       C  0.87495505  0.62903018  0.31251508     0.98700
C1317       C  0.87743422  0.63040124  0.18680221     1.06100
O1318       O  0.83437221  0.66714107  0.24960569    -1.11100
O1319       O  0.83360973  0.72857531  0.19717379    -0.73500
O1320       O  0.89357882  0.73756389  0.20259865    -0.77000
O1321       O  0.83873839  0.60882023  0.30410988    -0.77700
C1322       C  0.86913495  0.74535717  0.18530427     0.97600
O1323       O  0.89509901  0.73227735  0.30155628    -0.75700
O1324       O  0.76242583  0.65486242  0.20775034    -0.80800
C1325       C  0.75473806  0.62611766  0.31390677     1.00200
C1326       C  0.75436830  0.62359573  0.18762631     1.06100
O1327       O  0.76393736  0.60391762  0.29356623    -0.76500
C1328       C  0.87434578  0.74703319  0.31231439     1.04400
C1329       C  0.93551281  0.61886426  0.09268834    -0.11900
C1330       C  0.92511493  0.57953696  0.09787997     0.10300
C1331       C  0.90030894  0.55843317  0.13383241    -0.11900
C1332       C  0.88453696  0.57501386  0.16156318    -0.11900
C1333       C  0.89396558  0.61371155  0.15551076     0.10300
C1334       C  0.92018111  0.63582200  0.12129393    -0.11900
H1335       H  0.95539975  0.63637230  0.06628153     0.14200
H1336       H  0.89344091  0.52915531  0.14158630     0.14200
H1337       H  0.86555592  0.55761488  0.18867951     0.14200
H1338       H  0.92848565  0.66598717  0.11640929     0.14200
C1339       C  0.98327616  0.57774698  0.07324413    -0.11800
C1340       C  0.51832552  0.59434392  0.07273459    -0.13400
C1341       C  0.94954438  0.61309227  0.37223781    -0.11900
C1342       C  0.92632529  0.58189272  0.40140529     0.10300
C1343       C  0.88592755  0.56804527  0.40279022    -0.11900
C1344       C  0.86914001  0.58379318  0.37478688    -0.11900
C1345       C  0.89242436  0.61426873  0.34520711     0.10300
C1346       C  0.93282941  0.62907411  0.34480114    -0.11900
H1347       H  0.98072296  0.62527974  0.36996347     0.14200
H1348       H  0.86723181  0.54440323  0.42510614     0.14200
H1349       H  0.83790911  0.57184211  0.37595467     0.14200
H1350       H  0.95160970  0.65242605  0.32221919     0.14200
C1351       C  0.93646175  0.56762097  0.01895127    -0.11800
C1352       C  0.93764208  0.56824004  0.47855516    -0.13400
C1353       C  0.92432537  0.52099293  0.42309408    -0.11800
C1354       C  0.90637178  0.98589329  0.42301207    -0.13400
C1355       C  0.56763375  0.62955913  0.01968716    -0.11800
C1356       C  0.56853324  0.62901143  0.47933119    -0.13400
C1357       C  0.98578396  0.57946801  0.42466080    -0.11800
C1358       C  0.52089055  0.59543756  0.42429302    -0.13400
C1359       C  0.90308726  0.98364414  0.07135958    -0.11800
C1360       C  0.92233279  0.51861621  0.07157327    -0.13400
C1361       C  0.86958324  0.93747871  0.47642991    -0.11800
C1362       C  0.86823539  0.93656342  0.01673584    -0.13400
C1363       C  0.93183250  0.81904369  0.09732415    -0.11900
C1364       C  0.91604842  0.84380835  0.09653835     0.10300
C1365       C  0.88233542  0.83320118  0.12242008    -0.11900
C1366       C  0.86596871  0.79995326  0.14917813    -0.11900
C1367       C  0.88325132  0.77683557  0.15179294     0.10300
C1368       C  0.91608280  0.78637125  0.12526533    -0.11900
H1369       H  0.95721474  0.82576774  0.07728006     0.14200
H1370       H  0.86856639  0.85065621  0.12287157     0.14200
H1371       H  0.84074747  0.79335115  0.16949474     0.14200
H1372       H  0.92984000  0.76882242  0.12655425     0.14200
C1373       C  0.91817803  0.90564715  0.07478424    -0.11800
C1374       C  0.90047408  0.92296329  0.07407770    -0.13400
C1375       C  0.51298351  0.92065590  0.07950175    -0.11800
C1376       C  0.97774707  0.90401765  0.07837617    -0.13400
C1377       C  0.56018496  0.93148032  0.02404915    -0.11800
C1378       C  0.56086712  0.93083158  0.48357481    -0.13400
C1379       C  0.68144346  0.61435584  0.40344926    -0.11900
C1380       C  0.65625695  0.57368824  0.40409668     0.10300
C1381       C  0.66570519  0.55076440  0.37659534    -0.11900
C1382       C  0.69830865  0.56791025  0.34870706    -0.11900
C1383       C  0.72241953  0.60849036  0.34688853     0.10300
C1384       C  0.71383679  0.63156905  0.37484754    -0.11900
H1385       H  0.67542633  0.63290009  0.42443552     0.14200
H1386       H  0.64796584  0.51941904  0.37600140     0.14200
H1387       H  0.70399772  0.54920232  0.32760524     0.14200
H1388       H  0.73191608  0.66294537  0.37432061     0.14200
C1389       C  0.57954656  0.59246835  0.42513678    -0.11800
C1390       C  0.59625481  0.57415842  0.42510603    -0.13400
C1391       C  0.59483701  0.51347211  0.42744210    -0.11800
C1392       C  0.57678085  0.97838597  0.42748032    -0.13400
C1393       C  0.88683671  0.83467021  0.37581150    -0.11900
C1394       C  0.91959443  0.84471009  0.40296716     0.10300
C1395       C  0.93566846  0.82013858  0.40212412    -0.11900
C1396       C  0.92106606  0.78818555  0.37308703    -0.11900
C1397       C  0.88908474  0.77915032  0.34535396     0.10300
C1398       C  0.87174913  0.80234308  0.34783387    -0.11900
H1399       H  0.87262748  0.85174101  0.37559540     0.14200
H1400       H  0.96034122  0.82638744  0.42314316     0.14200
H1401       H  0.93489211  0.77069862  0.37220668     0.14200
H1402       H  0.84696672  0.79621358  0.32707002     0.14200
C1403       C  0.93190982  0.87101847  0.48001837    -0.11800
C1404       C  0.93174313  0.87126375  0.02047539    -0.13400
C1405       C  0.51518129  0.92039292  0.42713383    -0.11800
C1406       C  0.98013593  0.90420239  0.42536077    -0.13400
C1407       C  0.92159325  0.90676302  0.42391328    -0.11800
C1408       C  0.90503554  0.92516561  0.42232739    -0.13400
C1409       C  0.67940390  0.55954250  0.10033736    -0.11900
C1410       C  0.65474695  0.57552956  0.09921027     0.10300
C1411       C  0.66494308  0.60853692  0.12588852    -0.11900
C1412       C  0.69774461  0.62433093  0.15309837    -0.11900
C1413       C  0.72155930  0.60768863  0.15529207     0.10300
C1414       C  0.71219167  0.57516834  0.12839710    -0.11900
H1415       H  0.67286762  0.53451571  0.07991854     0.14200
H1416       H  0.64779535  0.62266929  0.12621102     0.14200
H1417       H  0.70390086  0.64937287  0.17328364     0.14200
H1418       H  0.72998662  0.56167012  0.12925401     0.14200
C1419       C  0.59329474  0.51578201  0.07728665    -0.11800
C1420       C  0.57404028  0.98067053  0.07707671    -0.13400
C1421       C  0.63020088  0.56173673  0.48131742    -0.11800
C1422       C  0.62972743  0.56238560  0.02174664    -0.13400
C1423       C  0.59476753  0.57626492  0.07537012    -0.11800
C1424       C  0.57816289  0.59462290  0.07590177    -0.13400
C1425       C  0.62149241  0.92616861  0.15614882    -0.11900
C1426       C  0.60489708  0.88563887  0.15824741     0.10300
C1427       C  0.57231622  0.86223308  0.13141554    -0.11900
C1428       C  0.55676757  0.87922972  0.10318440    -0.11900
C1429       C  0.57287206  0.91995498  0.10184193     0.10300
C1430       C  0.60575186  0.94302185  0.12876695    -0.11900
H1431       H  0.64652896  0.94521191  0.17640986     0.14200
H1432       H  0.55884142  0.83087327  0.13226663     0.14200
H1433       H  0.53180072  0.86055233  0.08266119     0.14200
H1434       H  0.61986952  0.97436815  0.12908414     0.14200
C1435       C  0.78454353  0.86779616  0.12647642    -0.11900
C1436       C  0.77349055  0.89178392  0.14889480     0.10300
C1437       C  0.79412133  0.93185240  0.14018896    -0.11900
C1438       C  0.82677909  0.94792313  0.11216877    -0.11900
C1439       C  0.83993071  0.92440973  0.09228818     0.10300
C1440       C  0.81686480  0.88383491  0.09787941    -0.11900
H1441       H  0.76860910  0.83662086  0.13170135     0.14200
H1442       H  0.78590542  0.95102991  0.15631894     0.14200
H1443       H  0.84157880  0.97886240  0.10619969     0.14200
H1444       H  0.82463476  0.86455754  0.08118758     0.14200
C1445       C  0.63222389  0.91614406  0.37900609    -0.11900
C1446       C  0.60901349  0.88552942  0.34966635     0.10300
C1447       C  0.56852644  0.87011175  0.35023503    -0.11900
C1448       C  0.55167142  0.88574388  0.37793338    -0.11900
C1449       C  0.57470149  0.91720223  0.40669571     0.10300
C1450       C  0.61520521  0.93143633  0.40758199    -0.11900
H1451       H  0.66352974  0.92856543  0.37949657     0.14200
H1452       H  0.54969823  0.84658162  0.32803599     0.14200
H1453       H  0.52045418  0.87312426  0.37595109     0.14200
H1454       H  0.63382609  0.95525966  0.42955604     0.14200
C1455       C  0.80349162  0.93084554  0.34384992    -0.11900
C1456       C  0.77924347  0.89025817  0.34287628     0.10300
C1457       C  0.78775972  0.86730817  0.37109950    -0.11900
C1458       C  0.82017708  0.88472795  0.39939917    -0.11900
C1459       C  0.84544943  0.92540590  0.39925999     0.10300
C1460       C  0.83616792  0.94816920  0.37130586    -0.11900
H1461       H  0.79778907  0.94942473  0.32247140     0.14200
H1462       H  0.76944891  0.83595226  0.37125293     0.14200
H1463       H  0.82598676  0.86637003  0.42102892     0.14200
H1464       H  0.85395504  0.97950852  0.37022981     0.14200
C1465       C  0.63525816  0.71235335  0.12727277    -0.11900
C1466       C  0.61131145  0.72098324  0.15377461     0.10300
C1467       C  0.57076461  0.69703216  0.15062779    -0.11900
C1468       C  0.55442533  0.66457552  0.12293174    -0.11900
C1469       C  0.57812367  0.65497789  0.09692597     0.10300
C1470       C  0.61883200  0.67998210  0.09883834    -0.11900
H1471       H  0.66666632  0.73034756  0.12884039     0.14200
H1472       H  0.55137175  0.70276958  0.17047435     0.14200
H1473       H  0.52300379  0.64716565  0.12242969     0.14200
H1474       H  0.63795852  0.67393699  0.07889436     0.14200
C1475       C  0.62808986  0.69517376  0.34473068    -0.11900
C1476       C  0.61340980  0.72070843  0.34583533     0.10300
C1477       C  0.58345528  0.71341542  0.37618720    -0.11900
C1478       C  0.56810532  0.68085853  0.40432103    -0.11900
C1479       C  0.58181089  0.65436634  0.40227771     0.10300
C1480       C  0.61246627  0.66242166  0.37228040    -0.11900
H1481       H  0.65103042  0.69983003  0.32150669     0.14200
H1482       H  0.57161795  0.73264493  0.37788134     0.14200
H1483       H  0.54482776  0.67581295  0.42722529     0.14200
H1484       H  0.62443364  0.64341462  0.36938142     0.14200
Fe1485     Fe  0.69562071  0.80533087  0.74800161     1.65800
Fe1486     Fe  0.60825076  0.80227712  0.75167361     1.73200
Fe1487     Fe  0.69269193  0.88948186  0.75108153     1.54400
O1488       O  0.73600006  0.89484400  0.79301177    -0.80200
O1489       O  0.60281947  0.83262618  0.69832210    -0.77900
O1490       O  0.73088519  0.83688414  0.80106753    -0.82700
O1491       O  0.73536586  0.84370611  0.70221639    -0.77600
O1492       O  0.66228230  0.89101412  0.80682064    -0.79400
O1493       O  0.60462675  0.76108102  0.70702328    -0.82100
C1494       C  0.74287431  0.87553091  0.68388864     0.98700
C1495       C  0.74649456  0.87268488  0.81084675     1.06100
O1496       O  0.66554662  0.83234687  0.75021380    -1.11100
O1497       O  0.60745444  0.76877472  0.80513794    -0.73500
O1498       O  0.65958506  0.76288713  0.79290135    -0.77000
O1499       O  0.72632089  0.89437993  0.69567720    -0.77700
C1500       C  0.62781703  0.75305013  0.81317348     0.97600
O1501       O  0.66408519  0.77069342  0.69484456    -0.75700
O1502       O  0.60359232  0.83915361  0.79655500    -0.80800
C1503       C  0.62119811  0.86887628  0.69001987     1.00200
C1504       C  0.62624733  0.87093025  0.81623876     1.06100
O1505       O  0.65308145  0.89219786  0.70912384    -0.76500
C1506       C  0.62784366  0.75312262  0.68672307     1.04400
C1507       C  0.61853705  0.55776345  0.56927197    -0.01000
C1508       C  0.93785778  0.88124750  0.93221324    -0.01000
C1509       C  0.61975943  0.55573752  0.93362499    -0.01000
C1510       C  0.55697592  0.93627122  0.93547539    -0.01000
C1511       C  0.55521064  0.93811546  0.57149873    -0.01000
C1512       C  0.93567218  0.88096057  0.56840731    -0.01000
C1513       C  0.87743473  0.94172536  0.56453499    -0.01000
C1514       C  0.56313062  0.61807998  0.93184983    -0.01000
C1515       C  0.94359182  0.56307229  0.93106753    -0.01000
C1516       C  0.88137765  0.94358719  0.92926657    -0.01000
C1517       C  0.94144234  0.56099646  0.56626152    -0.01000
C1518       C  0.56067244  0.61881733  0.56719716    -0.01000
Fe1519     Fe  0.89177206  0.69748016  0.74793924     1.65800
Fe1520     Fe  0.80409768  0.69377699  0.75118707     1.73200
Fe1521     Fe  0.80698337  0.60993782  0.74989556     1.54400
O1522       O  0.84588566  0.60705177  0.70665530    -0.80200
O1523       O  0.77128129  0.66227498  0.80575894    -0.78500
O1524       O  0.89562089  0.66668355  0.69429382    -0.82700
O1525       O  0.89739954  0.66089549  0.79256004    -0.77600
O1526       O  0.77237481  0.60538015  0.69556076    -0.79400
O1527       O  0.84144867  0.73622359  0.79465173    -0.82100
C1528       C  0.87495510  0.62903032  0.81251511     0.98700
C1529       C  0.87743422  0.63040120  0.68680220     1.06100
O1530       O  0.83437219  0.66714106  0.74960561    -1.11100
O1531       O  0.83360978  0.72857531  0.69717370    -0.73500
O1532       O  0.89357881  0.73756384  0.70259856    -0.77000
O1533       O  0.83873843  0.60882032  0.80410986    -0.77700
C1534       C  0.86913500  0.74535715  0.68530416     0.97600
O1535       O  0.89509914  0.73227745  0.80155618    -0.75700
O1536       O  0.76242586  0.65486250  0.70775034    -0.80800
C1537       C  0.75473814  0.62611778  0.81390670     1.00200
C1538       C  0.75436824  0.62359575  0.68762638     1.06100
O1539       O  0.76393736  0.60391772  0.79356615    -0.76500
C1540       C  0.87434593  0.74703329  0.81231432     1.04400
C1541       C  0.93551285  0.61886418  0.59268840    -0.11900
C1542       C  0.92511477  0.57953682  0.59787996     0.10300
C1543       C  0.90030866  0.55843293  0.63383231    -0.11900
C1544       C  0.88453681  0.57501375  0.66156313    -0.11900
C1545       C  0.89396560  0.61371149  0.65551080     0.10300
C1546       C  0.92018123  0.63582197  0.62129405    -0.11900
H1547       H  0.95539980  0.63637216  0.56628173     0.14200
H1548       H  0.89344053  0.52915520  0.64158608     0.14200
H1549       H  0.86555570  0.55761473  0.68867939     0.14200
H1550       H  0.92848590  0.66598718  0.61640947     0.14200
C1551       C  0.98327604  0.57774694  0.57324427    -0.11800
C1552       C  0.51832556  0.59434391  0.57273463    -0.13400
C1553       C  0.94954442  0.61309236  0.87223793    -0.11900
C1554       C  0.92632530  0.58189270  0.90140523     0.10300
C1555       C  0.88592757  0.56804526  0.90279013    -0.11900
C1556       C  0.86914008  0.58379331  0.87478692    -0.11900
C1557       C  0.89242444  0.61426895  0.84520728     0.10300
C1558       C  0.93282953  0.62907439  0.84480140    -0.11900
H1559       H  0.98072304  0.62527989  0.86996366     0.14200
H1560       H  0.86723179  0.54440314  0.92510595     0.14200
H1561       H  0.83790919  0.57184224  0.87595469     0.14200
H1562       H  0.95160985  0.65242639  0.82221970     0.14200
C1563       C  0.93646169  0.56762091  0.51895132    -0.11800
C1564       C  0.93764204  0.56824002  0.97855510    -0.13400
C1565       C  0.92432552  0.52099297  0.92309401    -0.11800
C1566       C  0.90637172  0.98589320  0.92301205    -0.13400
C1567       C  0.56763378  0.62955907  0.51968717    -0.11800
C1568       C  0.56853327  0.62901147  0.97933118    -0.13400
C1569       C  0.98578402  0.57946814  0.92466088    -0.11800
C1570       C  0.52089057  0.59543763  0.92429298    -0.13400
C1571       C  0.90308740  0.98364422  0.57135960    -0.11800
C1572       C  0.92233279  0.51861612  0.57157329    -0.13400
C1573       C  0.86958305  0.93747865  0.97642994    -0.11800
C1574       C  0.86823556  0.93656358  0.51673580    -0.13400
C1575       C  0.93183263  0.81904381  0.59732412    -0.11900
C1576       C  0.91604840  0.84380834  0.59653827     0.10300
C1577       C  0.88233530  0.83320109  0.62241992    -0.11900
C1578       C  0.86596873  0.79995315  0.64917792    -0.11900
C1579       C  0.88325137  0.77683555  0.65179282     0.10300
C1580       C  0.91608295  0.78637128  0.62526527    -0.11900
H1581       H  0.95721487  0.82576797  0.57728019     0.14200
H1582       H  0.86856626  0.85065594  0.62287139     0.14200
H1583       H  0.84074728  0.79335091  0.66949457     0.14200
H1584       H  0.92984015  0.76882260  0.62655417     0.14200
C1585       C  0.91817793  0.90564713  0.57478437    -0.11800
C1586       C  0.90047401  0.92296329  0.57407775    -0.13400
C1587       C  0.51298349  0.92065590  0.57950173    -0.11800
C1588       C  0.97774701  0.90401766  0.57837615    -0.13400
C1589       C  0.56018491  0.93148032  0.52404915    -0.11800
C1590       C  0.56086712  0.93083159  0.98357480    -0.13400
C1591       C  0.68144357  0.61435598  0.90344924    -0.11900
C1592       C  0.65625697  0.57368837  0.90409653     0.10300
C1593       C  0.66570512  0.55076448  0.87659513    -0.11900
C1594       C  0.69830857  0.56791039  0.84870679    -0.11900
C1595       C  0.72241955  0.60849049  0.84688840     0.10300
C1596       C  0.71383692  0.63156916  0.87484752    -0.11900
H1597       H  0.67542652  0.63290020  0.92443552     0.14200
H1598       H  0.64796583  0.51941928  0.87600118     0.14200
H1599       H  0.70399753  0.54920242  0.82760484     0.14200
H1600       H  0.73191632  0.66294552  0.87432071     0.14200
C1601       C  0.57954657  0.59246845  0.92513669    -0.11800
C1602       C  0.59625484  0.57415855  0.92510594    -0.13400
C1603       C  0.59483700  0.51347220  0.92744201    -0.11800
C1604       C  0.57678086  0.97838602  0.92748039    -0.13400
C1605       C  0.88683672  0.83467028  0.87581144    -0.11900
C1606       C  0.91959441  0.84471015  0.90296717     0.10300
C1607       C  0.93566842  0.82013863  0.90212410    -0.11900
C1608       C  0.92106612  0.78818562  0.87308704    -0.11900
C1609       C  0.88908484  0.77915041  0.84535391     0.10300
C1610       C  0.87174927  0.80234318  0.84783378    -0.11900
H1611       H  0.87262747  0.85174106  0.87559537     0.14200
H1612       H  0.96034122  0.82638752  0.92314328     0.14200
H1613       H  0.93489217  0.77069870  0.87220669     0.14200
H1614       H  0.84696684  0.79621365  0.82706974     0.14200
C1615       C  0.93190967  0.87101834  0.98001844    -0.11800
C1616       C  0.93174312  0.87126390  0.52047533    -0.13400
C1617       C  0.51518130  0.92039295  0.92713396    -0.11800
C1618       C  0.98013586  0.90420239  0.92536104    -0.13400
C1619       C  0.92159320  0.90676306  0.92391351    -0.11800
C1620       C  0.90503540  0.92516555  0.92232756    -0.13400
C1621       C  0.67940394  0.55954252  0.60033739    -0.11900
C1622       C  0.65474692  0.57552953  0.59921034     0.10300
C1623       C  0.66494300  0.60853684  0.62588862    -0.11900
C1624       C  0.69774440  0.62433076  0.65309862    -0.11900
C1625       C  0.72155918  0.60768858  0.65529225     0.10300
C1626       C  0.71219167  0.57516838  0.62839719    -0.11900
H1627       H  0.67286776  0.53451583  0.57991857     0.14200
H1628       H  0.64779527  0.62266920  0.62621105     0.14200
H1629       H  0.70390054  0.64937267  0.67328404     0.14200
H1630       H  0.72998673  0.56167022  0.62925406     0.14200
C1631       C  0.59329466  0.51578196  0.57728665    -0.11800
C1632       C  0.57404018  0.98067055  0.57707666    -0.13400
C1633       C  0.63020094  0.56173686  0.98131729    -0.11800
C1634       C  0.62972741  0.56238555  0.52174677    -0.13400
C1635       C  0.59476745  0.57626487  0.57537026    -0.11800
C1636       C  0.57816285  0.59462288  0.57590196    -0.13400
C1637       C  0.62149228  0.92616866  0.65614902    -0.11900
C1638       C  0.60489702  0.88563892  0.65824741     0.10300
C1639       C  0.57231626  0.86223307  0.63141542    -0.11900
C1640       C  0.55676765  0.87922978  0.60318429    -0.11900
C1641       C  0.57287200  0.91995500  0.60184195     0.10300
C1642       C  0.60575167  0.94302187  0.62876715    -0.11900
H1643       H  0.64652863  0.94521186  0.67641010     0.14200
H1644       H  0.55884159  0.83087339  0.63226640     0.14200
H1645       H  0.53180081  0.86055233  0.58266092     0.14200
H1646       H  0.61986924  0.97436817  0.62908449     0.14200
C1647       C  0.78454353  0.86779628  0.62647631    -0.11900
C1648       C  0.77349056  0.89178400  0.64889476     0.10300
C1649       C  0.79412131  0.93185251  0.64018893    -0.11900
C1650       C  0.82677907  0.94792325  0.61216868    -0.11900
C1651       C  0.83993070  0.92440986  0.59228808     0.10300
C1652       C  0.81686479  0.88383504  0.59787933    -0.11900
H1653       H  0.76860911  0.83662097  0.63170119     0.14200
H1654       H  0.78590540  0.95102989  0.65631892     0.14200
H1655       H  0.84157881  0.97886258  0.60619965     0.14200
H1656       H  0.82463475  0.86455762  0.58118748     0.14200
C1657       C  0.63222381  0.91614401  0.87900604    -0.11900
C1658       C  0.60901342  0.88552947  0.84966623     0.10300
C1659       C  0.56852636  0.87011187  0.85023475    -0.11900
C1660       C  0.55167138  0.88574410  0.87793305    -0.11900
C1661       C  0.57470146  0.91720230  0.90669558     0.10300
C1662       C  0.61520515  0.93143627  0.90758199    -0.11900
H1663       H  0.66352966  0.92856531  0.87949656     0.14200
H1664       H  0.54969820  0.84658187  0.82803572     0.14200
H1665       H  0.52045416  0.87312462  0.87595062     0.14200
H1666       H  0.63382601  0.95525947  0.92955618     0.14200
C1667       C  0.80349151  0.93084562  0.84384995    -0.11900
C1668       C  0.77924344  0.89025822  0.84287626     0.10300
C1669       C  0.78775973  0.86730820  0.87109937    -0.11900
C1670       C  0.82017703  0.88472798  0.89939908    -0.11900
C1671       C  0.84544934  0.92540590  0.89926001     0.10300
C1672       C  0.83616782  0.94816929  0.87130598    -0.11900
H1673       H  0.79778899  0.94942474  0.82247155     0.14200
H1674       H  0.76944898  0.83595228  0.87125266     0.14200
H1675       H  0.82598672  0.86636999  0.92102883     0.14200
H1676       H  0.85395482  0.97950849  0.87023003     0.14200
C1677       C  0.63525813  0.71235330  0.62727287    -0.11900
C1678       C  0.61131147  0.72098332  0.65377453     0.10300
C1679       C  0.57076460  0.69703232  0.65062754    -0.11900
C1680       C  0.55442540  0.66457567  0.62293156    -0.11900
C1681       C  0.57812368  0.65497796  0.59692588     0.10300
C1682       C  0.61883206  0.67998211  0.59883838    -0.11900
H1683       H  0.66666642  0.73034746  0.62884071     0.14200
H1684       H  0.55137174  0.70276983  0.67047405     0.14200
H1685       H  0.52300366  0.64716568  0.62242947     0.14200
H1686       H  0.63795854  0.67393696  0.57889461     0.14200
C1687       C  0.62809006  0.69517401  0.84473088    -0.11900
C1688       C  0.61340994  0.72070860  0.84583537     0.10300
C1689       C  0.58345523  0.71341545  0.87618708    -0.11900
C1690       C  0.56810524  0.68085853  0.90432087    -0.11900
C1691       C  0.58181089  0.65436640  0.90227765     0.10300
C1692       C  0.61246641  0.66242185  0.87228048    -0.11900
H1693       H  0.65103081  0.69983039  0.82150693     0.14200
H1694       H  0.57161783  0.73264489  0.87788113     0.14200
H1695       H  0.54482763  0.67581289  0.92722508     0.14200
H1696       H  0.62443384  0.64341487  0.86938159     0.14200
loop_ 
_geom_bond_atom_site_label_1 
_geom_bond_atom_site_label_2 
_geom_bond_distance 
_geom_bond_site_symmetry_2 
_ccdc_geom_bond_type 
Fe1          O17   2.064       .  S
Fe1           O7   2.062       .  S
Fe1          O14   2.062       .  S
Fe1           O6   2.071       .  S
Fe1          O12   1.971       .  S
Fe2           O5   2.074       .  S
Fe2           O9   2.063       .  S
Fe2          O13   2.068       .  S
Fe2          O18   2.065       .  S
Fe2          O12   1.968       .  S
Fe3          O21   2.058       .  S
Fe3           O8   2.074       .  S
Fe3          O15   2.071       .  S
Fe3           O4   2.052       .  S
Fe3          O12   1.967       .  S
O4           C11   1.267       .  A
O5           C19   1.271       .  A
O6           C11   1.270       .  A
O7           C10   1.269       .  A
O8           C20   1.270       .  A
O9           C22   1.270       .  A
C10          O15   1.272       .  A
C10         C164   1.480       .  S
C11         C184   1.478       .  S
O13          C16   1.271       .  A
O14          C16   1.270       .  A
C16         C204   1.479       .  S
O17          C22   1.268       .  A
O18          C20   1.270       .  A
C19          O21   1.269       .  A
C19         C154   1.483       .  S
C20         C174   1.484       .  S
C22         C194   1.481       .  S
C23         C138   1.533       .  S
C23         C147   1.472       .  S
C23         C150   1.469       .  S
C23         C151   1.473       .  S
C24         C122   1.532       .  S
C24         C131   1.469       .  S
C24         C134   1.467       .  S
C24         C135   1.474       .  S
C25         C108   1.530       .  S
C25         C118   1.471       .  S
C25         C119   1.473       .  S
C25         C149   1.469       .  S
C26         C177   1.533       .  S
C26         C106   1.471       .  S
C26         C120   1.469       .  S
C26         C133   1.471       .  S
C27         C157   1.532       .  S
C27         C103   1.476       .  S
C27         C105   1.472       .  S
C27         C148   1.477       .  S
C28          C92   1.528       .  S
C28         C101   1.474       .  S
C28         C104   1.477       .  S
C28         C132   1.470       .  S
C29         C167   1.530       .  S
C29          C87   1.468       .  S
C29          C90   1.462       .  S
C29         C102   1.472       .  S
C30         C207   1.527       .  S
C30          C84   1.467       .  S
C30          C86   1.469       .  S
C30         C117   1.475       .  S
C31          C70   1.528       .  S
C31          C80   1.468       .  S
C31          C81   1.469       .  S
C31          C85   1.473       .  S
C32         C187   1.526       .  S
C32          C82   1.474       .  S
C32          C89   1.464       .  S
C32         C136   1.469       .  S
C33          C58   1.529       .  S
C33          C67   1.462       .  S
C33          C79   1.468       .  S
C33          C88   1.469       .  S
C34         C197   1.530       .  S
C34          C68   1.468       .  S
C34          C83   1.466       .  S
C34         C152   1.467       .  S
Fe35         O51   2.078       .  S
Fe35         O41   2.066       .  S
Fe35         O48   2.064       .  S
Fe35         O40   2.070       .  S
Fe35         O46   1.972       .  S
Fe36         O39   2.066       .  S
Fe36         O43   2.056       .  S
Fe36         O47   2.060       .  S
Fe36         O52   2.062       .  S
Fe36         O46   1.965       .  S
Fe37         O55   2.064       .  S
Fe37         O42   2.076       .  S
Fe37         O49   2.067       .  S
Fe37         O38   2.060       .  S
Fe37         O46   1.968       .  S
O38          C45   1.269       .  A
O39          C53   1.268       .  A
O40          C45   1.268       .  A
O41          C44   1.271       .  A
O42          C54   1.272       .  A
O43          C56   1.268       .  A
C44          O49   1.271       .  A
C44          C73   1.480       .  S
C45          C61   1.478       .  S
O47          C50   1.270       .  A
O48          C50   1.269       .  A
C50          C95   1.474       .  S
O51          C56   1.271       .  A
O52          C54   1.270       .  A
C53          O55   1.269       .  A
C53         C111   1.482       .  S
C54         C141   1.485       .  S
C56         C125   1.484       .  S
C57          C58   1.412       .  A
C57          C62   1.404       .  A
C57          H63   1.083       .  S
C58          C59   1.410       .  A
C59          C60   1.389       .  A
C59          H64   1.080       .  S
C60          C61   1.402       .  A
C60          H65   1.084       .  S
C61          C62   1.405       .  A
C62          H66   1.083       .  S
C67         C916   1.204       .  T
C68         C915   1.204   1_455  T
C69          C70   1.411       .  A
C69          C74   1.394       .  A
C69          H75   1.081       .  S
C70          C71   1.411       .  A
C71          C72   1.399       .  A
C71          H76   1.083       .  S
C72          C73   1.404       .  A
C72          H77   1.083       .  S
C73          C74   1.404       .  A
C74          H78   1.083       .  S
C79         C292   1.206   1_554  T
C80         C291   1.206       .  T
C81         C506   1.207   1_545  T
C82         C505   1.207       .  T
C83         C296   1.205   1_554  T
C84         C295   1.205       .  T
C85         C934   1.207       .  T
C86         C933   1.207   1_455  T
C87         C512   1.205       .  T
C88         C511   1.205   1_545  T
C89         C302   1.204       .  T
C90         C301   1.204   1_554  T
C91          C92   1.410       .  A
C91          C96   1.398       .  A
C91          H97   1.083       .  S
C92          C93   1.413       .  A
C93          C94   1.393       .  A
C93          H98   1.080       .  S
C94          C95   1.401       .  A
C94          H99   1.083       .  S
C95          C96   1.404       .  A
C96         H100   1.083       .  S
C101        C102   1.208       .  T
C103        C952   1.211   1_455  T
C104        C951   1.211       .  T
C105        C318   1.209   1_554  T
C106        C317   1.209       .  T
C107        C108   1.411       .  A
C107        C112   1.401       .  A
C107        H113   1.083       .  S
C108        C109   1.412       .  A
C109        C110   1.393       .  A
C109        H114   1.081       .  S
C110        C111   1.404       .  A
C110        H115   1.083       .  S
C111        C112   1.405       .  A
C112        H116   1.083       .  S
C117        C118   1.208       .  T
C119        C544   1.207   1_545  T
C120        C543   1.207       .  T
C121        C122   1.411       .  A
C121        C126   1.393       .  A
C121        H127   1.080       .  S
C122        C123   1.413       .  A
C123        C124   1.403       .  A
C123        H128   1.083       .  S
C124        C125   1.404       .  A
C124        H129   1.083       .  S
C125        C126   1.405       .  A
C126        H130   1.083       .  S
C131        C344   1.207       .  T
C132        C343   1.207   1_554  T
C133        C982   1.206   1_455  T
C134        C981   1.206       .  T
C135        C136   1.207       .  T
C137        C138   1.412       .  A
C137        C142   1.405       .  A
C137        H143   1.083       .  S
C138        C139   1.412       .  A
C139        C140   1.390       .  A
C139        H144   1.080       .  S
C140        C141   1.404       .  A
C140        H145   1.083       .  S
C141        C142   1.406       .  A
C142        H146   1.083       .  S
C147        C572   1.209   1_545  T
C148        C571   1.209       .  T
C149        C362   1.207       .  T
C150        C361   1.207   1_554  T
C151        C152   1.207       .  T
C153        C154   1.404       .  A
C153        C158   1.390       .  A
C153        H159   1.083       .  S
C154        C155   1.405       .  A
C155        C156   1.404       .  A
C155        H160   1.083       .  S
C156        C157   1.412       .  A
C156        H161   1.083       .  S
C157        C158   1.412       .  A
C158        H162   1.080       .  S
C163        C164   1.406       .  A
C163        C168   1.398       .  A
C163        H169   1.083       .  S
C164        C165   1.402       .  A
C165        C166   1.397       .  A
C165        H170   1.083       .  S
C166        C167   1.413       .  A
C166        H171   1.079       .  S
C167        C168   1.409       .  A
C168        H172   1.083       .  S
C173        C174   1.406       .  A
C173        C178   1.404       .  A
C173        H179   1.083       .  S
C174        C175   1.404       .  A
C175        C176   1.393       .  A
C175        H180   1.083       .  S
C176        C177   1.412       .  A
C176        H181   1.080       .  S
C177        C178   1.412       .  A
C178        H182   1.083       .  S
C183        C184   1.404       .  A
C183        C188   1.391       .  A
C183        H189   1.083       .  S
C184        C185   1.403       .  A
C185        C186   1.399       .  A
C185        H190   1.083       .  S
C186        C187   1.412       .  A
C186        H191   1.083       .  S
C187        C188   1.410       .  A
C188        H192   1.081       .  S
C193        C194   1.406       .  A
C193        C198   1.402       .  A
C193        H199   1.083       .  S
C194        C195   1.402       .  A
C195        C196   1.391       .  A
C195        H200   1.083       .  S
C196        C197   1.413       .  A
C196        H201   1.081       .  S
C197        C198   1.410       .  A
C198        H202   1.083       .  S
C203        C204   1.404       .  A
C203        C208   1.393       .  A
C203        H209   1.083       .  S
C204        C205   1.403       .  A
C205        C206   1.399       .  A
C205        H210   1.083       .  S
C206        C207   1.411       .  A
C206        H211   1.083       .  S
C207        C208   1.411       .  A
C208        H212   1.081       .  S
Fe213       O229   2.064       .  S
Fe213       O219   2.062       .  S
Fe213       O226   2.062       .  S
Fe213       O218   2.071       .  S
Fe213       O224   1.971       .  S
Fe214       O217   2.074       .  S
Fe214       O221   2.063       .  S
Fe214       O225   2.068       .  S
Fe214       O230   2.065       .  S
Fe214       O224   1.968       .  S
Fe215       O233   2.058       .  S
Fe215       O220   2.074       .  S
Fe215       O227   2.071       .  S
Fe215       O216   2.052       .  S
Fe215       O224   1.967       .  S
O216        C223   1.267       .  A
O217        C231   1.271       .  A
O218        C223   1.270       .  A
O219        C222   1.269       .  A
O220        C232   1.270       .  A
O221        C234   1.270       .  A
C222        O227   1.272       .  A
C222        C376   1.480       .  S
C223        C396   1.478       .  S
O225        C228   1.271       .  A
O226        C228   1.270       .  A
C228        C416   1.479       .  S
O229        C234   1.268       .  A
O230        C232   1.270       .  A
C231        O233   1.269       .  A
C231        C366   1.483       .  S
C232        C386   1.484       .  S
C234        C406   1.481       .  S
C235        C350   1.533       .  S
C235        C359   1.472       .  S
C235        C362   1.469       .  S
C235        C363   1.473       .  S
C236        C334   1.532       .  S
C236        C343   1.469       .  S
C236        C346   1.467       .  S
C236        C347   1.474       .  S
C237        C320   1.530       .  S
C237        C330   1.471       .  S
C237        C331   1.473       .  S
C237        C361   1.469       .  S
C238        C389   1.533       .  S
C238        C318   1.471       .  S
C238        C332   1.469       .  S
C238        C345   1.471       .  S
C239        C369   1.532       .  S
C239        C315   1.476       .  S
C239        C317   1.472       .  S
C239        C360   1.477       .  S
C240        C304   1.528       .  S
C240        C313   1.474       .  S
C240        C316   1.477       .  S
C240        C344   1.470       .  S
C241        C379   1.530       .  S
C241        C299   1.468       .  S
C241        C302   1.462       .  S
C241        C314   1.472       .  S
C242        C419   1.527       .  S
C242        C296   1.467       .  S
C242        C298   1.469       .  S
C242        C329   1.475       .  S
C243        C282   1.528       .  S
C243        C292   1.468       .  S
C243        C293   1.469       .  S
C243        C297   1.473       .  S
C244        C399   1.526       .  S
C244        C294   1.474       .  S
C244        C301   1.464       .  S
C244        C348   1.469       .  S
C245        C270   1.529       .  S
C245        C279   1.462       .  S
C245        C291   1.468       .  S
C245        C300   1.469       .  S
C246        C409   1.530       .  S
C246        C280   1.468       .  S
C246        C295   1.466       .  S
C246        C364   1.467       .  S
Fe247       O263   2.078       .  S
Fe247       O253   2.066       .  S
Fe247       O260   2.064       .  S
Fe247       O252   2.070       .  S
Fe247       O258   1.972       .  S
Fe248       O251   2.066       .  S
Fe248       O255   2.056       .  S
Fe248       O259   2.060       .  S
Fe248       O264   2.062       .  S
Fe248       O258   1.965       .  S
Fe249       O267   2.064       .  S
Fe249       O254   2.076       .  S
Fe249       O261   2.067       .  S
Fe249       O250   2.060       .  S
Fe249       O258   1.968       .  S
O250        C257   1.269       .  A
O251        C265   1.268       .  A
O252        C257   1.268       .  A
O253        C256   1.271       .  A
O254        C266   1.272       .  A
O255        C268   1.268       .  A
C256        O261   1.271       .  A
C256        C285   1.480       .  S
C257        C273   1.478       .  S
O259        C262   1.270       .  A
O260        C262   1.269       .  A
C262        C307   1.474       .  S
O263        C268   1.271       .  A
O264        C266   1.270       .  A
C265        O267   1.269       .  A
C265        C323   1.482       .  S
C266        C353   1.485       .  S
C268        C337   1.484       .  S
C269        C270   1.412       .  A
C269        C274   1.404       .  A
C269        H275   1.083       .  S
C270        C271   1.410       .  A
C271        C272   1.389       .  A
C271        H276   1.080       .  S
C272        C273   1.402       .  A
C272        H277   1.084       .  S
C273        C274   1.405       .  A
C274        H278   1.083       .  S
C279       C1128   1.204       .  T
C280       C1127   1.204   1_455  T
C281        C282   1.411       .  A
C281        C286   1.394       .  A
C281        H287   1.081       .  S
C282        C283   1.411       .  A
C283        C284   1.399       .  A
C283        H288   1.083       .  S
C284        C285   1.404       .  A
C284        H289   1.083       .  S
C285        C286   1.404       .  A
C286        H290   1.083       .  S
C293        C718   1.207   1_545  T
C294        C717   1.207       .  T
C297       C1146   1.207       .  T
C298       C1145   1.207   1_455  T
C299        C724   1.205       .  T
C300        C723   1.205   1_545  T
C303        C304   1.410       .  A
C303        C308   1.398       .  A
C303        H309   1.083       .  S
C304        C305   1.413       .  A
C305        C306   1.393       .  A
C305        H310   1.080       .  S
C306        C307   1.401       .  A
C306        H311   1.083       .  S
C307        C308   1.404       .  A
C308        H312   1.083       .  S
C313        C314   1.208       .  T
C315       C1164   1.211   1_455  T
C316       C1163   1.211       .  T
C319        C320   1.411       .  A
C319        C324   1.401       .  A
C319        H325   1.083       .  S
C320        C321   1.412       .  A
C321        C322   1.393       .  A
C321        H326   1.081       .  S
C322        C323   1.404       .  A
C322        H327   1.083       .  S
C323        C324   1.405       .  A
C324        H328   1.083       .  S
C329        C330   1.208       .  T
C331        C756   1.207   1_545  T
C332        C755   1.207       .  T
C333        C334   1.411       .  A
C333        C338   1.393       .  A
C333        H339   1.080       .  S
C334        C335   1.413       .  A
C335        C336   1.403       .  A
C335        H340   1.083       .  S
C336        C337   1.404       .  A
C336        H341   1.083       .  S
C337        C338   1.405       .  A
C338        H342   1.083       .  S
C345       C1194   1.206   1_455  T
C346       C1193   1.206       .  T
C347        C348   1.207       .  T
C349        C350   1.412       .  A
C349        C354   1.405       .  A
C349        H355   1.083       .  S
C350        C351   1.412       .  A
C351        C352   1.390       .  A
C351        H356   1.080       .  S
C352        C353   1.404       .  A
C352        H357   1.083       .  S
C353        C354   1.406       .  A
C354        H358   1.083       .  S
C359        C784   1.209   1_545  T
C360        C783   1.209       .  T
C363        C364   1.207       .  T
C365        C366   1.404       .  A
C365        C370   1.390       .  A
C365        H371   1.083       .  S
C366        C367   1.405       .  A
C367        C368   1.404       .  A
C367        H372   1.083       .  S
C368        C369   1.412       .  A
C368        H373   1.083       .  S
C369        C370   1.412       .  A
C370        H374   1.080       .  S
C375        C376   1.406       .  A
C375        C380   1.398       .  A
C375        H381   1.083       .  S
C376        C377   1.402       .  A
C377        C378   1.397       .  A
C377        H382   1.083       .  S
C378        C379   1.413       .  A
C378        H383   1.079       .  S
C379        C380   1.409       .  A
C380        H384   1.083       .  S
C385        C386   1.406       .  A
C385        C390   1.404       .  A
C385        H391   1.083       .  S
C386        C387   1.404       .  A
C387        C388   1.393       .  A
C387        H392   1.083       .  S
C388        C389   1.412       .  A
C388        H393   1.080       .  S
C389        C390   1.412       .  A
C390        H394   1.083       .  S
C395        C396   1.404       .  A
C395        C400   1.391       .  A
C395        H401   1.083       .  S
C396        C397   1.403       .  A
C397        C398   1.399       .  A
C397        H402   1.083       .  S
C398        C399   1.412       .  A
C398        H403   1.083       .  S
C399        C400   1.410       .  A
C400        H404   1.081       .  S
C405        C406   1.406       .  A
C405        C410   1.402       .  A
C405        H411   1.083       .  S
C406        C407   1.402       .  A
C407        C408   1.391       .  A
C407        H412   1.083       .  S
C408        C409   1.413       .  A
C408        H413   1.081       .  S
C409        C410   1.410       .  A
C410        H414   1.083       .  S
C415        C416   1.404       .  A
C415        C420   1.393       .  A
C415        H421   1.083       .  S
C416        C417   1.403       .  A
C417        C418   1.399       .  A
C417        H422   1.083       .  S
C418        C419   1.411       .  A
C418        H423   1.083       .  S
C419        C420   1.411       .  A
C420        H424   1.081       .  S
Fe425       O441   2.064       .  S
Fe425       O431   2.062       .  S
Fe425       O438   2.062       .  S
Fe425       O430   2.071       .  S
Fe425       O436   1.971       .  S
Fe426       O429   2.074       .  S
Fe426       O433   2.063       .  S
Fe426       O437   2.068       .  S
Fe426       O442   2.065       .  S
Fe426       O436   1.968       .  S
Fe427       O445   2.058       .  S
Fe427       O432   2.074       .  S
Fe427       O439   2.071       .  S
Fe427       O428   2.052       .  S
Fe427       O436   1.967       .  S
O428        C435   1.267       .  A
O429        C443   1.271       .  A
O430        C435   1.270       .  A
O431        C434   1.269       .  A
O432        C444   1.270       .  A
O433        C446   1.270       .  A
C434        O439   1.272       .  A
C434        C588   1.480       .  S
C435        C608   1.478       .  S
O437        C440   1.271       .  A
O438        C440   1.270       .  A
C440        C628   1.479       .  S
O441        C446   1.268       .  A
O442        C444   1.270       .  A
C443        O445   1.269       .  A
C443        C578   1.483       .  S
C444        C598   1.484       .  S
C446        C618   1.481       .  S
C447        C562   1.533       .  S
C447        C571   1.472       .  S
C447        C574   1.469       .  S
C447        C575   1.473       .  S
C448        C546   1.532       .  S
C448        C555   1.469       .  S
C448        C558   1.467       .  S
C448        C559   1.474       .  S
C449        C532   1.530       .  S
C449        C542   1.471       .  S
C449        C543   1.473       .  S
C449        C573   1.469       .  S
C450        C601   1.533       .  S
C450        C530   1.471       .  S
C450        C544   1.469       .  S
C450        C557   1.471       .  S
C451        C581   1.532       .  S
C451        C527   1.476       .  S
C451        C529   1.472       .  S
C451        C572   1.477       .  S
C452        C516   1.528       .  S
C452        C525   1.474       .  S
C452        C528   1.477       .  S
C452        C556   1.470       .  S
C453        C591   1.530       .  S
C453        C511   1.468       .  S
C453        C514   1.462       .  S
C453        C526   1.472       .  S
C454        C631   1.527       .  S
C454        C508   1.467       .  S
C454        C510   1.469       .  S
C454        C541   1.475       .  S
C455        C494   1.528       .  S
C455        C504   1.468       .  S
C455        C505   1.469       .  S
C455        C509   1.473       .  S
C456        C611   1.526       .  S
C456        C506   1.474       .  S
C456        C513   1.464       .  S
C456        C560   1.469       .  S
C457        C482   1.529       .  S
C457        C491   1.462       .  S
C457        C503   1.468       .  S
C457        C512   1.469       .  S
C458        C621   1.530       .  S
C458        C492   1.468       .  S
C458        C507   1.466       .  S
C458        C576   1.467       .  S
Fe459       O475   2.078       .  S
Fe459       O465   2.066       .  S
Fe459       O472   2.064       .  S
Fe459       O464   2.070       .  S
Fe459       O470   1.972       .  S
Fe460       O463   2.066       .  S
Fe460       O467   2.056       .  S
Fe460       O471   2.060       .  S
Fe460       O476   2.062       .  S
Fe460       O470   1.965       .  S
Fe461       O479   2.064       .  S
Fe461       O466   2.076       .  S
Fe461       O473   2.067       .  S
Fe461       O462   2.060       .  S
Fe461       O470   1.968       .  S
O462        C469   1.269       .  A
O463        C477   1.268       .  A
O464        C469   1.268       .  A
O465        C468   1.271       .  A
O466        C478   1.272       .  A
O467        C480   1.268       .  A
C468        O473   1.271       .  A
C468        C497   1.480       .  S
C469        C485   1.478       .  S
O471        C474   1.270       .  A
O472        C474   1.269       .  A
C474        C519   1.474       .  S
O475        C480   1.271       .  A
O476        C478   1.270       .  A
C477        O479   1.269       .  A
C477        C535   1.482       .  S
C478        C565   1.485       .  S
C480        C549   1.484       .  S
C481        C482   1.412       .  A
C481        C486   1.404       .  A
C481        H487   1.083       .  S
C482        C483   1.410       .  A
C483        C484   1.389       .  A
C483        H488   1.080       .  S
C484        C485   1.402       .  A
C484        H489   1.084       .  S
C485        C486   1.405       .  A
C486        H490   1.083       .  S
C491       C1340   1.204       .  T
C492       C1339   1.204   1_455  T
C493        C494   1.411       .  A
C493        C498   1.394       .  A
C493        H499   1.081       .  S
C494        C495   1.411       .  A
C495        C496   1.399       .  A
C495        H500   1.083       .  S
C496        C497   1.404       .  A
C496        H501   1.083       .  S
C497        C498   1.404       .  A
C498        H502   1.083       .  S
C503        C716   1.206   1_554  T
C504        C715   1.206       .  T
C507        C720   1.205   1_554  T
C508        C719   1.205       .  T
C509       C1358   1.207       .  T
C510       C1357   1.207   1_455  T
C513        C726   1.204       .  T
C514        C725   1.204   1_554  T
C515        C516   1.410       .  A
C515        C520   1.398       .  A
C515        H521   1.083       .  S
C516        C517   1.413       .  A
C517        C518   1.393       .  A
C517        H522   1.080       .  S
C518        C519   1.401       .  A
C518        H523   1.083       .  S
C519        C520   1.404       .  A
C520        H524   1.083       .  S
C525        C526   1.208       .  T
C527       C1376   1.211   1_455  T
C528       C1375   1.211       .  T
C529        C742   1.209   1_554  T
C530        C741   1.209       .  T
C531        C532   1.411       .  A
C531        C536   1.401       .  A
C531        H537   1.083       .  S
C532        C533   1.412       .  A
C533        C534   1.393       .  A
C533        H538   1.081       .  S
C534        C535   1.404       .  A
C534        H539   1.083       .  S
C535        C536   1.405       .  A
C536        H540   1.083       .  S
C541        C542   1.208       .  T
C545        C546   1.411       .  A
C545        C550   1.393       .  A
C545        H551   1.080       .  S
C546        C547   1.413       .  A
C547        C548   1.403       .  A
C547        H552   1.083       .  S
C548        C549   1.404       .  A
C548        H553   1.083       .  S
C549        C550   1.405       .  A
C550        H554   1.083       .  S
C555        C768   1.207       .  T
C556        C767   1.207   1_554  T
C557       C1406   1.206   1_455  T
C558       C1405   1.206       .  T
C559        C560   1.207       .  T
C561        C562   1.412       .  A
C561        C566   1.405       .  A
C561        H567   1.083       .  S
C562        C563   1.412       .  A
C563        C564   1.390       .  A
C563        H568   1.080       .  S
C564        C565   1.404       .  A
C564        H569   1.083       .  S
C565        C566   1.406       .  A
C566        H570   1.083       .  S
C573        C786   1.207       .  T
C574        C785   1.207   1_554  T
C575        C576   1.207       .  T
C577        C578   1.404       .  A
C577        C582   1.390       .  A
C577        H583   1.083       .  S
C578        C579   1.405       .  A
C579        C580   1.404       .  A
C579        H584   1.083       .  S
C580        C581   1.412       .  A
C580        H585   1.083       .  S
C581        C582   1.412       .  A
C582        H586   1.080       .  S
C587        C588   1.406       .  A
C587        C592   1.398       .  A
C587        H593   1.083       .  S
C588        C589   1.402       .  A
C589        C590   1.397       .  A
C589        H594   1.083       .  S
C590        C591   1.413       .  A
C590        H595   1.079       .  S
C591        C592   1.409       .  A
C592        H596   1.083       .  S
C597        C598   1.406       .  A
C597        C602   1.404       .  A
C597        H603   1.083       .  S
C598        C599   1.404       .  A
C599        C600   1.393       .  A
C599        H604   1.083       .  S
C600        C601   1.412       .  A
C600        H605   1.080       .  S
C601        C602   1.412       .  A
C602        H606   1.083       .  S
C607        C608   1.404       .  A
C607        C612   1.391       .  A
C607        H613   1.083       .  S
C608        C609   1.403       .  A
C609        C610   1.399       .  A
C609        H614   1.083       .  S
C610        C611   1.412       .  A
C610        H615   1.083       .  S
C611        C612   1.410       .  A
C612        H616   1.081       .  S
C617        C618   1.406       .  A
C617        C622   1.402       .  A
C617        H623   1.083       .  S
C618        C619   1.402       .  A
C619        C620   1.391       .  A
C619        H624   1.083       .  S
C620        C621   1.413       .  A
C620        H625   1.081       .  S
C621        C622   1.410       .  A
C622        H626   1.083       .  S
C627        C628   1.404       .  A
C627        C632   1.393       .  A
C627        H633   1.083       .  S
C628        C629   1.403       .  A
C629        C630   1.399       .  A
C629        H634   1.083       .  S
C630        C631   1.411       .  A
C630        H635   1.083       .  S
C631        C632   1.411       .  A
C632        H636   1.081       .  S
Fe637       O653   2.064       .  S
Fe637       O643   2.062       .  S
Fe637       O650   2.062       .  S
Fe637       O642   2.071       .  S
Fe637       O648   1.971       .  S
Fe638       O641   2.074       .  S
Fe638       O645   2.063       .  S
Fe638       O649   2.068       .  S
Fe638       O654   2.065       .  S
Fe638       O648   1.968       .  S
Fe639       O657   2.058       .  S
Fe639       O644   2.074       .  S
Fe639       O651   2.071       .  S
Fe639       O640   2.052       .  S
Fe639       O648   1.967       .  S
O640        C647   1.267       .  A
O641        C655   1.271       .  A
O642        C647   1.270       .  A
O643        C646   1.269       .  A
O644        C656   1.270       .  A
O645        C658   1.270       .  A
C646        O651   1.272       .  A
C646        C800   1.480       .  S
C647        C820   1.478       .  S
O649        C652   1.271       .  A
O650        C652   1.270       .  A
C652        C840   1.479       .  S
O653        C658   1.268       .  A
O654        C656   1.270       .  A
C655        O657   1.269       .  A
C655        C790   1.483       .  S
C656        C810   1.484       .  S
C658        C830   1.481       .  S
C659        C774   1.533       .  S
C659        C783   1.472       .  S
C659        C786   1.469       .  S
C659        C787   1.473       .  S
C660        C758   1.532       .  S
C660        C767   1.469       .  S
C660        C770   1.467       .  S
C660        C771   1.474       .  S
C661        C744   1.530       .  S
C661        C754   1.471       .  S
C661        C755   1.473       .  S
C661        C785   1.469       .  S
C662        C813   1.533       .  S
C662        C742   1.471       .  S
C662        C756   1.469       .  S
C662        C769   1.471       .  S
C663        C793   1.532       .  S
C663        C739   1.476       .  S
C663        C741   1.472       .  S
C663        C784   1.477       .  S
C664        C728   1.528       .  S
C664        C737   1.474       .  S
C664        C740   1.477       .  S
C664        C768   1.470       .  S
C665        C803   1.530       .  S
C665        C723   1.468       .  S
C665        C726   1.462       .  S
C665        C738   1.472       .  S
C666        C843   1.527       .  S
C666        C720   1.467       .  S
C666        C722   1.469       .  S
C666        C753   1.475       .  S
C667        C706   1.528       .  S
C667        C716   1.468       .  S
C667        C717   1.469       .  S
C667        C721   1.473       .  S
C668        C823   1.526       .  S
C668        C718   1.474       .  S
C668        C725   1.464       .  S
C668        C772   1.469       .  S
C669        C694   1.529       .  S
C669        C703   1.462       .  S
C669        C715   1.468       .  S
C669        C724   1.469       .  S
C670        C833   1.530       .  S
C670        C704   1.468       .  S
C670        C719   1.466       .  S
C670        C788   1.467       .  S
Fe671       O687   2.078       .  S
Fe671       O677   2.066       .  S
Fe671       O684   2.064       .  S
Fe671       O676   2.070       .  S
Fe671       O682   1.972       .  S
Fe672       O675   2.066       .  S
Fe672       O679   2.056       .  S
Fe672       O683   2.060       .  S
Fe672       O688   2.062       .  S
Fe672       O682   1.965       .  S
Fe673       O691   2.064       .  S
Fe673       O678   2.076       .  S
Fe673       O685   2.067       .  S
Fe673       O674   2.060       .  S
Fe673       O682   1.968       .  S
O674        C681   1.269       .  A
O675        C689   1.268       .  A
O676        C681   1.268       .  A
O677        C680   1.271       .  A
O678        C690   1.272       .  A
O679        C692   1.268       .  A
C680        O685   1.271       .  A
C680        C709   1.480       .  S
C681        C697   1.478       .  S
O683        C686   1.270       .  A
O684        C686   1.269       .  A
C686        C731   1.474       .  S
O687        C692   1.271       .  A
O688        C690   1.270       .  A
C689        O691   1.269       .  A
C689        C747   1.482       .  S
C690        C777   1.485       .  S
C692        C761   1.484       .  S
C693        C694   1.412       .  A
C693        C698   1.404       .  A
C693        H699   1.083       .  S
C694        C695   1.410       .  A
C695        C696   1.389       .  A
C695        H700   1.080       .  S
C696        C697   1.402       .  A
C696        H701   1.083       .  S
C697        C698   1.405       .  A
C698        H702   1.083       .  S
C703       C1552   1.204       .  T
C704       C1551   1.204   1_455  T
C705        C706   1.411       .  A
C705        C710   1.394       .  A
C705        H711   1.081       .  S
C706        C707   1.411       .  A
C707        C708   1.399       .  A
C707        H712   1.083       .  S
C708        C709   1.404       .  A
C708        H713   1.083       .  S
C709        C710   1.404       .  A
C710        H714   1.083       .  S
C721       C1570   1.207       .  T
C722       C1569   1.207   1_455  T
C727        C728   1.410       .  A
C727        C732   1.398       .  A
C727        H733   1.083       .  S
C728        C729   1.413       .  A
C729        C730   1.393       .  A
C729        H734   1.080       .  S
C730        C731   1.401       .  A
C730        H735   1.083       .  S
C731        C732   1.404       .  A
C732        H736   1.083       .  S
C737        C738   1.208       .  T
C739       C1588   1.211   1_455  T
C740       C1587   1.211       .  T
C743        C744   1.411       .  A
C743        C748   1.401       .  A
C743        H749   1.083       .  S
C744        C745   1.412       .  A
C745        C746   1.393       .  A
C745        H750   1.081       .  S
C746        C747   1.404       .  A
C746        H751   1.083       .  S
C747        C748   1.405       .  A
C748        H752   1.083       .  S
C753        C754   1.208       .  T
C757        C758   1.411       .  A
C757        C762   1.393       .  A
C757        H763   1.080       .  S
C758        C759   1.413       .  A
C759        C760   1.403       .  A
C759        H764   1.083       .  S
C760        C761   1.404       .  A
C760        H765   1.083       .  S
C761        C762   1.405       .  A
C762        H766   1.083       .  S
C769       C1618   1.206   1_455  T
C770       C1617   1.206       .  T
C771        C772   1.207       .  T
C773        C774   1.412       .  A
C773        C778   1.405       .  A
C773        H779   1.083       .  S
C774        C775   1.412       .  A
C775        C776   1.390       .  A
C775        H780   1.080       .  S
C776        C777   1.404       .  A
C776        H781   1.083       .  S
C777        C778   1.406       .  A
C778        H782   1.083       .  S
C787        C788   1.207       .  T
C789        C790   1.404       .  A
C789        C794   1.390       .  A
C789        H795   1.083       .  S
C790        C791   1.405       .  A
C791        C792   1.404       .  A
C791        H796   1.083       .  S
C792        C793   1.412       .  A
C792        H797   1.083       .  S
C793        C794   1.412       .  A
C794        H798   1.080       .  S
C799        C800   1.406       .  A
C799        C804   1.398       .  A
C799        H805   1.083       .  S
C800        C801   1.402       .  A
C801        C802   1.397       .  A
C801        H806   1.083       .  S
C802        C803   1.413       .  A
C802        H807   1.079       .  S
C803        C804   1.409       .  A
C804        H808   1.083       .  S
C809        C810   1.406       .  A
C809        C814   1.404       .  A
C809        H815   1.083       .  S
C810        C811   1.404       .  A
C811        C812   1.393       .  A
C811        H816   1.083       .  S
C812        C813   1.412       .  A
C812        H817   1.080       .  S
C813        C814   1.412       .  A
C814        H818   1.083       .  S
C819        C820   1.404       .  A
C819        C824   1.391       .  A
C819        H825   1.083       .  S
C820        C821   1.403       .  A
C821        C822   1.399       .  A
C821        H826   1.083       .  S
C822        C823   1.412       .  A
C822        H827   1.083       .  S
C823        C824   1.410       .  A
C824        H828   1.081       .  S
C829        C830   1.406       .  A
C829        C834   1.402       .  A
C829        H835   1.083       .  S
C830        C831   1.402       .  A
C831        C832   1.391       .  A
C831        H836   1.083       .  S
C832        C833   1.413       .  A
C832        H837   1.081       .  S
C833        C834   1.410       .  A
C834        H838   1.083       .  S
C839        C840   1.404       .  A
C839        C844   1.393       .  A
C839        H845   1.083       .  S
C840        C841   1.403       .  A
C841        C842   1.399       .  A
C841        H846   1.083       .  S
C842        C843   1.411       .  A
C842        H847   1.083       .  S
C843        C844   1.411       .  A
C844        H848   1.081       .  S
Fe849       O865   2.064       .  S
Fe849       O855   2.062       .  S
Fe849       O862   2.062       .  S
Fe849       O854   2.071       .  S
Fe849       O860   1.971       .  S
Fe850       O853   2.074       .  S
Fe850       O857   2.063       .  S
Fe850       O861   2.068       .  S
Fe850       O866   2.065       .  S
Fe850       O860   1.968       .  S
Fe851       O869   2.058       .  S
Fe851       O856   2.074       .  S
Fe851       O863   2.071       .  S
Fe851       O852   2.052       .  S
Fe851       O860   1.967       .  S
O852        C859   1.267       .  A
O853        C867   1.271       .  A
O854        C859   1.270       .  A
O855        C858   1.269       .  A
O856        C868   1.270       .  A
O857        C870   1.270       .  A
C858        O863   1.272       .  A
C858       C1012   1.480       .  S
C859       C1032   1.478       .  S
O861        C864   1.271       .  A
O862        C864   1.270       .  A
C864       C1052   1.479       .  S
O865        C870   1.268       .  A
O866        C868   1.270       .  A
C867        O869   1.269       .  A
C867       C1002   1.483       .  S
C868       C1022   1.484       .  S
C870       C1042   1.481       .  S
C871        C986   1.533       .  S
C871        C995   1.472       .  S
C871        C998   1.469       .  S
C871        C999   1.473       .  S
C872        C970   1.532       .  S
C872        C979   1.469       .  S
C872        C982   1.467       .  S
C872        C983   1.474       .  S
C873        C956   1.530       .  S
C873        C966   1.471       .  S
C873        C967   1.473       .  S
C873        C997   1.469       .  S
C874       C1025   1.533       .  S
C874        C954   1.471       .  S
C874        C968   1.469       .  S
C874        C981   1.471       .  S
C875       C1005   1.532       .  S
C875        C951   1.476       .  S
C875        C953   1.472       .  S
C875        C996   1.477       .  S
C876        C940   1.528       .  S
C876        C949   1.474       .  S
C876        C952   1.477       .  S
C876        C980   1.470       .  S
C877       C1015   1.530       .  S
C877        C935   1.468       .  S
C877        C938   1.462       .  S
C877        C950   1.472       .  S
C878       C1055   1.527       .  S
C878        C932   1.467       .  S
C878        C934   1.469       .  S
C878        C965   1.475       .  S
C879        C918   1.528       .  S
C879        C928   1.468       .  S
C879        C929   1.469       .  S
C879        C933   1.473       .  S
C880       C1035   1.526       .  S
C880        C930   1.474       .  S
C880        C937   1.464       .  S
C880        C984   1.469       .  S
C881        C906   1.529       .  S
C881        C915   1.462       .  S
C881        C927   1.468       .  S
C881        C936   1.469       .  S
C882       C1045   1.530       .  S
C882        C916   1.468       .  S
C882        C931   1.466       .  S
C882       C1000   1.467       .  S
Fe883       O899   2.078       .  S
Fe883       O889   2.066       .  S
Fe883       O896   2.064       .  S
Fe883       O888   2.070       .  S
Fe883       O894   1.972       .  S
Fe884       O887   2.066       .  S
Fe884       O891   2.056       .  S
Fe884       O895   2.060       .  S
Fe884       O900   2.062       .  S
Fe884       O894   1.965       .  S
Fe885       O903   2.064       .  S
Fe885       O890   2.076       .  S
Fe885       O897   2.067       .  S
Fe885       O886   2.060       .  S
Fe885       O894   1.968       .  S
O886        C893   1.269       .  A
O887        C901   1.268       .  A
O888        C893   1.268       .  A
O889        C892   1.271       .  A
O890        C902   1.272       .  A
O891        C904   1.268       .  A
C892        O897   1.271       .  A
C892        C921   1.480       .  S
C893        C909   1.478       .  S
O895        C898   1.270       .  A
O896        C898   1.269       .  A
C898        C943   1.474       .  S
O899        C904   1.271       .  A
O900        C902   1.270       .  A
C901        O903   1.269       .  A
C901        C959   1.482       .  S
C902        C989   1.485       .  S
C904        C973   1.484       .  S
C905        C906   1.412       .  A
C905        C910   1.404       .  A
C905        H911   1.083       .  S
C906        C907   1.410       .  A
C907        C908   1.389       .  A
C907        H912   1.080       .  S
C908        C909   1.402       .  A
C908        H913   1.083       .  S
C909        C910   1.405       .  A
C910        H914   1.083       .  S
C917        C918   1.411       .  A
C917        C922   1.394       .  A
C917        H923   1.081       .  S
C918        C919   1.411       .  A
C919        C920   1.399       .  A
C919        H924   1.083       .  S
C920        C921   1.404       .  A
C920        H925   1.083       .  S
C921        C922   1.404       .  A
C922        H926   1.083       .  S
C927       C1140   1.206   1_554  T
C928       C1139   1.206       .  T
C929       C1354   1.207   1_545  T
C930       C1353   1.207       .  T
C931       C1144   1.205   1_554  T
C932       C1143   1.205       .  T
C935       C1360   1.205       .  T
C936       C1359   1.205   1_545  T
C937       C1150   1.204       .  T
C938       C1149   1.204   1_554  T
C939        C940   1.410       .  A
C939        C944   1.398       .  A
C939        H945   1.083       .  S
C940        C941   1.413       .  A
C941        C942   1.393       .  A
C941        H946   1.080       .  S
C942        C943   1.401       .  A
C942        H947   1.083       .  S
C943        C944   1.404       .  A
C944        H948   1.083       .  S
C949        C950   1.208       .  T
C953       C1166   1.209   1_554  T
C954       C1165   1.209       .  T
C955        C956   1.411       .  A
C955        C960   1.401       .  A
C955        H961   1.083       .  S
C956        C957   1.412       .  A
C957        C958   1.393       .  A
C957        H962   1.081       .  S
C958        C959   1.404       .  A
C958        H963   1.083       .  S
C959        C960   1.405       .  A
C960        H964   1.083       .  S
C965        C966   1.208       .  T
C967       C1392   1.207   1_545  T
C968       C1391   1.207       .  T
C969        C970   1.411       .  A
C969        C974   1.393       .  A
C969        H975   1.080       .  S
C970        C971   1.413       .  A
C971        C972   1.403       .  A
C971        H976   1.083       .  S
C972        C973   1.404       .  A
C972        H977   1.083       .  S
C973        C974   1.405       .  A
C974        H978   1.083       .  S
C979       C1192   1.207       .  T
C980       C1191   1.207   1_554  T
C983        C984   1.207       .  T
C985        C986   1.412       .  A
C985        C990   1.405       .  A
C985        H991   1.083       .  S
C986        C987   1.412       .  A
C987        C988   1.390       .  A
C987        H992   1.080       .  S
C988        C989   1.404       .  A
C988        H993   1.083       .  S
C989        C990   1.406       .  A
C990        H994   1.083       .  S
C995       C1420   1.209   1_545  T
C996       C1419   1.209       .  T
C997       C1210   1.207       .  T
C998       C1209   1.207   1_554  T
C999       C1000   1.207       .  T
C1001      C1002   1.404       .  A
C1001      C1006   1.390       .  A
C1001      H1007   1.083       .  S
C1002      C1003   1.405       .  A
C1003      C1004   1.404       .  A
C1003      H1008   1.083       .  S
C1004      C1005   1.412       .  A
C1004      H1009   1.083       .  S
C1005      C1006   1.412       .  A
C1006      H1010   1.080       .  S
C1011      C1012   1.406       .  A
C1011      C1016   1.398       .  A
C1011      H1017   1.083       .  S
C1012      C1013   1.402       .  A
C1013      C1014   1.397       .  A
C1013      H1018   1.083       .  S
C1014      C1015   1.413       .  A
C1014      H1019   1.079       .  S
C1015      C1016   1.409       .  A
C1016      H1020   1.083       .  S
C1021      C1022   1.406       .  A
C1021      C1026   1.404       .  A
C1021      H1027   1.083       .  S
C1022      C1023   1.404       .  A
C1023      C1024   1.393       .  A
C1023      H1028   1.083       .  S
C1024      C1025   1.412       .  A
C1024      H1029   1.080       .  S
C1025      C1026   1.412       .  A
C1026      H1030   1.083       .  S
C1031      C1032   1.404       .  A
C1031      C1036   1.391       .  A
C1031      H1037   1.083       .  S
C1032      C1033   1.403       .  A
C1033      C1034   1.399       .  A
C1033      H1038   1.083       .  S
C1034      C1035   1.412       .  A
C1034      H1039   1.083       .  S
C1035      C1036   1.410       .  A
C1036      H1040   1.081       .  S
C1041      C1042   1.406       .  A
C1041      C1046   1.402       .  A
C1041      H1047   1.083       .  S
C1042      C1043   1.402       .  A
C1043      C1044   1.391       .  A
C1043      H1048   1.083       .  S
C1044      C1045   1.413       .  A
C1044      H1049   1.081       .  S
C1045      C1046   1.410       .  A
C1046      H1050   1.083       .  S
C1051      C1052   1.404       .  A
C1051      C1056   1.393       .  A
C1051      H1057   1.083       .  S
C1052      C1053   1.403       .  A
C1053      C1054   1.399       .  A
C1053      H1058   1.083       .  S
C1054      C1055   1.411       .  A
C1054      H1059   1.083       .  S
C1055      C1056   1.411       .  A
C1056      H1060   1.081       .  S
Fe1061     O1077   2.064       .  S
Fe1061     O1067   2.062       .  S
Fe1061     O1074   2.062       .  S
Fe1061     O1066   2.071       .  S
Fe1061     O1072   1.971       .  S
Fe1062     O1065   2.074       .  S
Fe1062     O1069   2.063       .  S
Fe1062     O1073   2.068       .  S
Fe1062     O1078   2.065       .  S
Fe1062     O1072   1.968       .  S
Fe1063     O1081   2.058       .  S
Fe1063     O1068   2.074       .  S
Fe1063     O1075   2.071       .  S
Fe1063     O1064   2.052       .  S
Fe1063     O1072   1.967       .  S
O1064      C1071   1.267       .  A
O1065      C1079   1.271       .  A
O1066      C1071   1.270       .  A
O1067      C1070   1.269       .  A
O1068      C1080   1.270       .  A
O1069      C1082   1.270       .  A
C1070      O1075   1.272       .  A
C1070      C1224   1.480       .  S
C1071      C1244   1.478       .  S
O1073      C1076   1.271       .  A
O1074      C1076   1.270       .  A
C1076      C1264   1.479       .  S
O1077      C1082   1.268       .  A
O1078      C1080   1.270       .  A
C1079      O1081   1.269       .  A
C1079      C1214   1.483       .  S
C1080      C1234   1.484       .  S
C1082      C1254   1.481       .  S
C1083      C1198   1.533       .  S
C1083      C1207   1.472       .  S
C1083      C1210   1.469       .  S
C1083      C1211   1.473       .  S
C1084      C1182   1.532       .  S
C1084      C1191   1.469       .  S
C1084      C1194   1.467       .  S
C1084      C1195   1.474       .  S
C1085      C1168   1.530       .  S
C1085      C1178   1.471       .  S
C1085      C1179   1.473       .  S
C1085      C1209   1.469       .  S
C1086      C1237   1.533       .  S
C1086      C1166   1.471       .  S
C1086      C1180   1.469       .  S
C1086      C1193   1.471       .  S
C1087      C1217   1.532       .  S
C1087      C1163   1.476       .  S
C1087      C1165   1.472       .  S
C1087      C1208   1.477       .  S
C1088      C1152   1.528       .  S
C1088      C1161   1.474       .  S
C1088      C1164   1.477       .  S
C1088      C1192   1.470       .  S
C1089      C1227   1.530       .  S
C1089      C1147   1.468       .  S
C1089      C1150   1.462       .  S
C1089      C1162   1.472       .  S
C1090      C1267   1.527       .  S
C1090      C1144   1.467       .  S
C1090      C1146   1.469       .  S
C1090      C1177   1.475       .  S
C1091      C1130   1.528       .  S
C1091      C1140   1.468       .  S
C1091      C1141   1.469       .  S
C1091      C1145   1.473       .  S
C1092      C1247   1.526       .  S
C1092      C1142   1.474       .  S
C1092      C1149   1.464       .  S
C1092      C1196   1.469       .  S
C1093      C1118   1.529       .  S
C1093      C1127   1.462       .  S
C1093      C1139   1.468       .  S
C1093      C1148   1.469       .  S
C1094      C1257   1.530       .  S
C1094      C1128   1.468       .  S
C1094      C1143   1.466       .  S
C1094      C1212   1.467       .  S
Fe1095     O1111   2.078       .  S
Fe1095     O1101   2.066       .  S
Fe1095     O1108   2.064       .  S
Fe1095     O1100   2.070       .  S
Fe1095     O1106   1.972       .  S
Fe1096     O1099   2.066       .  S
Fe1096     O1103   2.056       .  S
Fe1096     O1107   2.060       .  S
Fe1096     O1112   2.062       .  S
Fe1096     O1106   1.965       .  S
Fe1097     O1115   2.064       .  S
Fe1097     O1102   2.076       .  S
Fe1097     O1109   2.067       .  S
Fe1097     O1098   2.060       .  S
Fe1097     O1106   1.968       .  S
O1098      C1105   1.269       .  A
O1099      C1113   1.268       .  A
O1100      C1105   1.268       .  A
O1101      C1104   1.271       .  A
O1102      C1114   1.272       .  A
O1103      C1116   1.268       .  A
C1104      O1109   1.271       .  A
C1104      C1133   1.480       .  S
C1105      C1121   1.478       .  S
O1107      C1110   1.270       .  A
O1108      C1110   1.269       .  A
C1110      C1155   1.474       .  S
O1111      C1116   1.271       .  A
O1112      C1114   1.270       .  A
C1113      O1115   1.269       .  A
C1113      C1171   1.482       .  S
C1114      C1201   1.485       .  S
C1116      C1185   1.484       .  S
C1117      C1118   1.412       .  A
C1117      C1122   1.404       .  A
C1117      H1123   1.083       .  S
C1118      C1119   1.410       .  A
C1119      C1120   1.389       .  A
C1119      H1124   1.080       .  S
C1120      C1121   1.402       .  A
C1120      H1125   1.083       .  S
C1121      C1122   1.405       .  A
C1122      H1126   1.083       .  S
C1129      C1130   1.411       .  A
C1129      C1134   1.394       .  A
C1129      H1135   1.081       .  S
C1130      C1131   1.411       .  A
C1131      C1132   1.399       .  A
C1131      H1136   1.083       .  S
C1132      C1133   1.404       .  A
C1132      H1137   1.083       .  S
C1133      C1134   1.404       .  A
C1134      H1138   1.083       .  S
C1141      C1566   1.207   1_545  T
C1142      C1565   1.207       .  T
C1147      C1572   1.205       .  T
C1148      C1571   1.205   1_545  T
C1151      C1152   1.410       .  A
C1151      C1156   1.398       .  A
C1151      H1157   1.083       .  S
C1152      C1153   1.413       .  A
C1153      C1154   1.393       .  A
C1153      H1158   1.080       .  S
C1154      C1155   1.401       .  A
C1154      H1159   1.083       .  S
C1155      C1156   1.404       .  A
C1156      H1160   1.083       .  S
C1161      C1162   1.208       .  T
C1167      C1168   1.411       .  A
C1167      C1172   1.401       .  A
C1167      H1173   1.083       .  S
C1168      C1169   1.412       .  A
C1169      C1170   1.393       .  A
C1169      H1174   1.081       .  S
C1170      C1171   1.404       .  A
C1170      H1175   1.083       .  S
C1171      C1172   1.405       .  A
C1172      H1176   1.083       .  S
C1177      C1178   1.208       .  T
C1179      C1604   1.207   1_545  T
C1180      C1603   1.207       .  T
C1181      C1182   1.411       .  A
C1181      C1186   1.393       .  A
C1181      H1187   1.080       .  S
C1182      C1183   1.413       .  A
C1183      C1184   1.403       .  A
C1183      H1188   1.083       .  S
C1184      C1185   1.404       .  A
C1184      H1189   1.083       .  S
C1185      C1186   1.405       .  A
C1186      H1190   1.083       .  S
C1195      C1196   1.207       .  T
C1197      C1198   1.412       .  A
C1197      C1202   1.405       .  A
C1197      H1203   1.083       .  S
C1198      C1199   1.412       .  A
C1199      C1200   1.390       .  A
C1199      H1204   1.080       .  S
C1200      C1201   1.404       .  A
C1200      H1205   1.083       .  S
C1201      C1202   1.406       .  A
C1202      H1206   1.083       .  S
C1207      C1632   1.209   1_545  T
C1208      C1631   1.209       .  T
C1211      C1212   1.207       .  T
C1213      C1214   1.404       .  A
C1213      C1218   1.390       .  A
C1213      H1219   1.083       .  S
C1214      C1215   1.405       .  A
C1215      C1216   1.404       .  A
C1215      H1220   1.083       .  S
C1216      C1217   1.412       .  A
C1216      H1221   1.083       .  S
C1217      C1218   1.412       .  A
C1218      H1222   1.080       .  S
C1223      C1224   1.406       .  A
C1223      C1228   1.398       .  A
C1223      H1229   1.083       .  S
C1224      C1225   1.402       .  A
C1225      C1226   1.397       .  A
C1225      H1230   1.083       .  S
C1226      C1227   1.413       .  A
C1226      H1231   1.079       .  S
C1227      C1228   1.409       .  A
C1228      H1232   1.083       .  S
C1233      C1234   1.406       .  A
C1233      C1238   1.404       .  A
C1233      H1239   1.083       .  S
C1234      C1235   1.404       .  A
C1235      C1236   1.393       .  A
C1235      H1240   1.083       .  S
C1236      C1237   1.412       .  A
C1236      H1241   1.080       .  S
C1237      C1238   1.412       .  A
C1238      H1242   1.083       .  S
C1243      C1244   1.404       .  A
C1243      C1248   1.391       .  A
C1243      H1249   1.083       .  S
C1244      C1245   1.403       .  A
C1245      C1246   1.399       .  A
C1245      H1250   1.083       .  S
C1246      C1247   1.412       .  A
C1246      H1251   1.083       .  S
C1247      C1248   1.410       .  A
C1248      H1252   1.081       .  S
C1253      C1254   1.406       .  A
C1253      C1258   1.402       .  A
C1253      H1259   1.083       .  S
C1254      C1255   1.402       .  A
C1255      C1256   1.391       .  A
C1255      H1260   1.083       .  S
C1256      C1257   1.413       .  A
C1256      H1261   1.081       .  S
C1257      C1258   1.410       .  A
C1258      H1262   1.083       .  S
C1263      C1264   1.404       .  A
C1263      C1268   1.393       .  A
C1263      H1269   1.083       .  S
C1264      C1265   1.403       .  A
C1265      C1266   1.399       .  A
C1265      H1270   1.083       .  S
C1266      C1267   1.411       .  A
C1266      H1271   1.083       .  S
C1267      C1268   1.411       .  A
C1268      H1272   1.081       .  S
Fe1273     O1289   2.064       .  S
Fe1273     O1279   2.062       .  S
Fe1273     O1286   2.062       .  S
Fe1273     O1278   2.071       .  S
Fe1273     O1284   1.971       .  S
Fe1274     O1277   2.074       .  S
Fe1274     O1281   2.063       .  S
Fe1274     O1285   2.068       .  S
Fe1274     O1290   2.065       .  S
Fe1274     O1284   1.968       .  S
Fe1275     O1293   2.058       .  S
Fe1275     O1280   2.074       .  S
Fe1275     O1287   2.071       .  S
Fe1275     O1276   2.052       .  S
Fe1275     O1284   1.967       .  S
O1276      C1283   1.267       .  A
O1277      C1291   1.271       .  A
O1278      C1283   1.270       .  A
O1279      C1282   1.269       .  A
O1280      C1292   1.270       .  A
O1281      C1294   1.270       .  A
C1282      O1287   1.272       .  A
C1282      C1436   1.480       .  S
C1283      C1456   1.478       .  S
O1285      C1288   1.271       .  A
O1286      C1288   1.270       .  A
C1288      C1476   1.479       .  S
O1289      C1294   1.268       .  A
O1290      C1292   1.270       .  A
C1291      O1293   1.269       .  A
C1291      C1426   1.483       .  S
C1292      C1446   1.484       .  S
C1294      C1466   1.481       .  S
C1295      C1410   1.533       .  S
C1295      C1419   1.472       .  S
C1295      C1422   1.469       .  S
C1295      C1423   1.473       .  S
C1296      C1394   1.532       .  S
C1296      C1403   1.469       .  S
C1296      C1406   1.467       .  S
C1296      C1407   1.474       .  S
C1297      C1380   1.530       .  S
C1297      C1390   1.471       .  S
C1297      C1391   1.473       .  S
C1297      C1421   1.469       .  S
C1298      C1449   1.533       .  S
C1298      C1378   1.471       .  S
C1298      C1392   1.469       .  S
C1298      C1405   1.471       .  S
C1299      C1429   1.532       .  S
C1299      C1375   1.476       .  S
C1299      C1377   1.472       .  S
C1299      C1420   1.477       .  S
C1300      C1364   1.528       .  S
C1300      C1373   1.474       .  S
C1300      C1376   1.477       .  S
C1300      C1404   1.470       .  S
C1301      C1439   1.530       .  S
C1301      C1359   1.468       .  S
C1301      C1362   1.462       .  S
C1301      C1374   1.472       .  S
C1302      C1479   1.527       .  S
C1302      C1356   1.467       .  S
C1302      C1358   1.469       .  S
C1302      C1389   1.475       .  S
C1303      C1342   1.528       .  S
C1303      C1352   1.468       .  S
C1303      C1353   1.469       .  S
C1303      C1357   1.473       .  S
C1304      C1459   1.526       .  S
C1304      C1354   1.474       .  S
C1304      C1361   1.464       .  S
C1304      C1408   1.469       .  S
C1305      C1330   1.529       .  S
C1305      C1339   1.462       .  S
C1305      C1351   1.468       .  S
C1305      C1360   1.469       .  S
C1306      C1469   1.530       .  S
C1306      C1340   1.468       .  S
C1306      C1355   1.466       .  S
C1306      C1424   1.467       .  S
Fe1307     O1323   2.078       .  S
Fe1307     O1313   2.066       .  S
Fe1307     O1320   2.064       .  S
Fe1307     O1312   2.070       .  S
Fe1307     O1318   1.972       .  S
Fe1308     O1311   2.066       .  S
Fe1308     O1315   2.056       .  S
Fe1308     O1319   2.060       .  S
Fe1308     O1324   2.062       .  S
Fe1308     O1318   1.965       .  S
Fe1309     O1327   2.064       .  S
Fe1309     O1314   2.076       .  S
Fe1309     O1321   2.067       .  S
Fe1309     O1310   2.060       .  S
Fe1309     O1318   1.968       .  S
O1310      C1317   1.269       .  A
O1311      C1325   1.268       .  A
O1312      C1317   1.268       .  A
O1313      C1316   1.271       .  A
O1314      C1326   1.272       .  A
O1315      C1328   1.268       .  A
C1316      O1321   1.271       .  A
C1316      C1345   1.480       .  S
C1317      C1333   1.478       .  S
O1319      C1322   1.270       .  A
O1320      C1322   1.269       .  A
C1322      C1367   1.474       .  S
O1323      C1328   1.271       .  A
O1324      C1326   1.270       .  A
C1325      O1327   1.269       .  A
C1325      C1383   1.482       .  S
C1326      C1413   1.485       .  S
C1328      C1397   1.484       .  S
C1329      C1330   1.412       .  A
C1329      C1334   1.404       .  A
C1329      H1335   1.083       .  S
C1330      C1331   1.410       .  A
C1331      C1332   1.389       .  A
C1331      H1336   1.080       .  S
C1332      C1333   1.402       .  A
C1332      H1337   1.084       .  S
C1333      C1334   1.405       .  A
C1334      H1338   1.083       .  S
C1341      C1342   1.411       .  A
C1341      C1346   1.394       .  A
C1341      H1347   1.081       .  S
C1342      C1343   1.411       .  A
C1343      C1344   1.399       .  A
C1343      H1348   1.083       .  S
C1344      C1345   1.404       .  A
C1344      H1349   1.083       .  S
C1345      C1346   1.404       .  A
C1346      H1350   1.083       .  S
C1351      C1564   1.206   1_554  T
C1352      C1563   1.206       .  T
C1355      C1568   1.205   1_554  T
C1356      C1567   1.205       .  T
C1361      C1574   1.204       .  T
C1362      C1573   1.204   1_554  T
C1363      C1364   1.410       .  A
C1363      C1368   1.398       .  A
C1363      H1369   1.083       .  S
C1364      C1365   1.413       .  A
C1365      C1366   1.393       .  A
C1365      H1370   1.080       .  S
C1366      C1367   1.401       .  A
C1366      H1371   1.083       .  S
C1367      C1368   1.404       .  A
C1368      H1372   1.083       .  S
C1373      C1374   1.208       .  T
C1377      C1590   1.209   1_554  T
C1378      C1589   1.209       .  T
C1379      C1380   1.411       .  A
C1379      C1384   1.401       .  A
C1379      H1385   1.083       .  S
C1380      C1381   1.412       .  A
C1381      C1382   1.393       .  A
C1381      H1386   1.081       .  S
C1382      C1383   1.404       .  A
C1382      H1387   1.083       .  S
C1383      C1384   1.405       .  A
C1384      H1388   1.083       .  S
C1389      C1390   1.208       .  T
C1393      C1394   1.411       .  A
C1393      C1398   1.393       .  A
C1393      H1399   1.080       .  S
C1394      C1395   1.413       .  A
C1395      C1396   1.403       .  A
C1395      H1400   1.083       .  S
C1396      C1397   1.404       .  A
C1396      H1401   1.083       .  S
C1397      C1398   1.405       .  A
C1398      H1402   1.083       .  S
C1403      C1616   1.207       .  T
C1404      C1615   1.207   1_554  T
C1407      C1408   1.207       .  T
C1409      C1410   1.412       .  A
C1409      C1414   1.405       .  A
C1409      H1415   1.083       .  S
C1410      C1411   1.412       .  A
C1411      C1412   1.390       .  A
C1411      H1416   1.080       .  S
C1412      C1413   1.404       .  A
C1412      H1417   1.083       .  S
C1413      C1414   1.406       .  A
C1414      H1418   1.083       .  S
C1421      C1634   1.207       .  T
C1422      C1633   1.207   1_554  T
C1423      C1424   1.207       .  T
C1425      C1426   1.404       .  A
C1425      C1430   1.390       .  A
C1425      H1431   1.083       .  S
C1426      C1427   1.405       .  A
C1427      C1428   1.404       .  A
C1427      H1432   1.083       .  S
C1428      C1429   1.412       .  A
C1428      H1433   1.083       .  S
C1429      C1430   1.412       .  A
C1430      H1434   1.080       .  S
C1435      C1436   1.406       .  A
C1435      C1440   1.398       .  A
C1435      H1441   1.083       .  S
C1436      C1437   1.402       .  A
C1437      C1438   1.397       .  A
C1437      H1442   1.083       .  S
C1438      C1439   1.413       .  A
C1438      H1443   1.079       .  S
C1439      C1440   1.409       .  A
C1440      H1444   1.083       .  S
C1445      C1446   1.406       .  A
C1445      C1450   1.404       .  A
C1445      H1451   1.083       .  S
C1446      C1447   1.404       .  A
C1447      C1448   1.393       .  A
C1447      H1452   1.083       .  S
C1448      C1449   1.412       .  A
C1448      H1453   1.080       .  S
C1449      C1450   1.412       .  A
C1450      H1454   1.083       .  S
C1455      C1456   1.404       .  A
C1455      C1460   1.391       .  A
C1455      H1461   1.083       .  S
C1456      C1457   1.403       .  A
C1457      C1458   1.399       .  A
C1457      H1462   1.083       .  S
C1458      C1459   1.412       .  A
C1458      H1463   1.083       .  S
C1459      C1460   1.410       .  A
C1460      H1464   1.081       .  S
C1465      C1466   1.406       .  A
C1465      C1470   1.402       .  A
C1465      H1471   1.083       .  S
C1466      C1467   1.402       .  A
C1467      C1468   1.391       .  A
C1467      H1472   1.083       .  S
C1468      C1469   1.413       .  A
C1468      H1473   1.081       .  S
C1469      C1470   1.410       .  A
C1470      H1474   1.083       .  S
C1475      C1476   1.404       .  A
C1475      C1480   1.393       .  A
C1475      H1481   1.083       .  S
C1476      C1477   1.403       .  A
C1477      C1478   1.399       .  A
C1477      H1482   1.083       .  S
C1478      C1479   1.411       .  A
C1478      H1483   1.083       .  S
C1479      C1480   1.411       .  A
C1480      H1484   1.081       .  S
Fe1485     O1501   2.064       .  S
Fe1485     O1491   2.062       .  S
Fe1485     O1498   2.062       .  S
Fe1485     O1490   2.071       .  S
Fe1485     O1496   1.971       .  S
Fe1486     O1489   2.074       .  S
Fe1486     O1493   2.063       .  S
Fe1486     O1497   2.068       .  S
Fe1486     O1502   2.065       .  S
Fe1486     O1496   1.968       .  S
Fe1487     O1505   2.058       .  S
Fe1487     O1492   2.074       .  S
Fe1487     O1499   2.071       .  S
Fe1487     O1488   2.052       .  S
Fe1487     O1496   1.967       .  S
O1488      C1495   1.267       .  A
O1489      C1503   1.271       .  A
O1490      C1495   1.270       .  A
O1491      C1494   1.269       .  A
O1492      C1504   1.270       .  A
O1493      C1506   1.270       .  A
C1494      O1499   1.272       .  A
C1494      C1648   1.480       .  S
C1495      C1668   1.478       .  S
O1497      C1500   1.271       .  A
O1498      C1500   1.270       .  A
C1500      C1688   1.479       .  S
O1501      C1506   1.268       .  A
O1502      C1504   1.270       .  A
C1503      O1505   1.269       .  A
C1503      C1638   1.483       .  S
C1504      C1658   1.484       .  S
C1506      C1678   1.481       .  S
C1507      C1622   1.533       .  S
C1507      C1631   1.472       .  S
C1507      C1634   1.469       .  S
C1507      C1635   1.473       .  S
C1508      C1606   1.532       .  S
C1508      C1615   1.469       .  S
C1508      C1618   1.467       .  S
C1508      C1619   1.474       .  S
C1509      C1592   1.530       .  S
C1509      C1602   1.471       .  S
C1509      C1603   1.473       .  S
C1509      C1633   1.469       .  S
C1510      C1661   1.533       .  S
C1510      C1590   1.471       .  S
C1510      C1604   1.469       .  S
C1510      C1617   1.471       .  S
C1511      C1641   1.532       .  S
C1511      C1587   1.476       .  S
C1511      C1589   1.472       .  S
C1511      C1632   1.477       .  S
C1512      C1576   1.528       .  S
C1512      C1585   1.474       .  S
C1512      C1588   1.477       .  S
C1512      C1616   1.470       .  S
C1513      C1651   1.530       .  S
C1513      C1571   1.468       .  S
C1513      C1574   1.462       .  S
C1513      C1586   1.472       .  S
C1514      C1691   1.527       .  S
C1514      C1568   1.467       .  S
C1514      C1570   1.469       .  S
C1514      C1601   1.475       .  S
C1515      C1554   1.528       .  S
C1515      C1564   1.468       .  S
C1515      C1565   1.469       .  S
C1515      C1569   1.473       .  S
C1516      C1671   1.526       .  S
C1516      C1566   1.474       .  S
C1516      C1573   1.464       .  S
C1516      C1620   1.469       .  S
C1517      C1542   1.529       .  S
C1517      C1551   1.462       .  S
C1517      C1563   1.468       .  S
C1517      C1572   1.469       .  S
C1518      C1681   1.530       .  S
C1518      C1552   1.468       .  S
C1518      C1567   1.466       .  S
C1518      C1636   1.467       .  S
Fe1519     O1535   2.078       .  S
Fe1519     O1525   2.066       .  S
Fe1519     O1532   2.064       .  S
Fe1519     O1524   2.070       .  S
Fe1519     O1530   1.972       .  S
Fe1520     O1523   2.066       .  S
Fe1520     O1527   2.056       .  S
Fe1520     O1531   2.060       .  S
Fe1520     O1536   2.062       .  S
Fe1520     O1530   1.965       .  S
Fe1521     O1539   2.064       .  S
Fe1521     O1526   2.076       .  S
Fe1521     O1533   2.067       .  S
Fe1521     O1522   2.060       .  S
Fe1521     O1530   1.968       .  S
O1522      C1529   1.269       .  A
O1523      C1537   1.268       .  A
O1524      C1529   1.268       .  A
O1525      C1528   1.271       .  A
O1526      C1538   1.272       .  A
O1527      C1540   1.268       .  A
C1528      O1533   1.271       .  A
C1528      C1557   1.480       .  S
C1529      C1545   1.478       .  S
O1531      C1534   1.270       .  A
O1532      C1534   1.269       .  A
C1534      C1579   1.474       .  S
O1535      C1540   1.271       .  A
O1536      C1538   1.270       .  A
C1537      O1539   1.269       .  A
C1537      C1595   1.482       .  S
C1538      C1625   1.485       .  S
C1540      C1609   1.484       .  S
C1541      C1542   1.412       .  A
C1541      C1546   1.404       .  A
C1541      H1547   1.083       .  S
C1542      C1543   1.410       .  A
C1543      C1544   1.389       .  A
C1543      H1548   1.080       .  S
C1544      C1545   1.402       .  A
C1544      H1549   1.084       .  S
C1545      C1546   1.405       .  A
C1546      H1550   1.083       .  S
C1553      C1554   1.411       .  A
C1553      C1558   1.394       .  A
C1553      H1559   1.081       .  S
C1554      C1555   1.411       .  A
C1555      C1556   1.399       .  A
C1555      H1560   1.083       .  S
C1556      C1557   1.404       .  A
C1556      H1561   1.083       .  S
C1557      C1558   1.404       .  A
C1558      H1562   1.083       .  S
C1575      C1576   1.410       .  A
C1575      C1580   1.398       .  A
C1575      H1581   1.083       .  S
C1576      C1577   1.413       .  A
C1577      C1578   1.393       .  A
C1577      H1582   1.080       .  S
C1578      C1579   1.401       .  A
C1578      H1583   1.083       .  S
C1579      C1580   1.404       .  A
C1580      H1584   1.083       .  S
C1585      C1586   1.208       .  T
C1591      C1592   1.411       .  A
C1591      C1596   1.401       .  A
C1591      H1597   1.083       .  S
C1592      C1593   1.412       .  A
C1593      C1594   1.393       .  A
C1593      H1598   1.081       .  S
C1594      C1595   1.404       .  A
C1594      H1599   1.083       .  S
C1595      C1596   1.405       .  A
C1596      H1600   1.083       .  S
C1601      C1602   1.208       .  T
C1605      C1606   1.411       .  A
C1605      C1610   1.393       .  A
C1605      H1611   1.080       .  S
C1606      C1607   1.413       .  A
C1607      C1608   1.403       .  A
C1607      H1612   1.083       .  S
C1608      C1609   1.404       .  A
C1608      H1613   1.083       .  S
C1609      C1610   1.405       .  A
C1610      H1614   1.083       .  S
C1619      C1620   1.207       .  T
C1621      C1622   1.412       .  A
C1621      C1626   1.405       .  A
C1621      H1627   1.083       .  S
C1622      C1623   1.412       .  A
C1623      C1624   1.390       .  A
C1623      H1628   1.080       .  S
C1624      C1625   1.404       .  A
C1624      H1629   1.083       .  S
C1625      C1626   1.406       .  A
C1626      H1630   1.083       .  S
C1635      C1636   1.207       .  T
C1637      C1638   1.404       .  A
C1637      C1642   1.390       .  A
C1637      H1643   1.083       .  S
C1638      C1639   1.405       .  A
C1639      C1640   1.404       .  A
C1639      H1644   1.083       .  S
C1640      C1641   1.412       .  A
C1640      H1645   1.083       .  S
C1641      C1642   1.412       .  A
C1642      H1646   1.080       .  S
C1647      C1648   1.406       .  A
C1647      C1652   1.398       .  A
C1647      H1653   1.083       .  S
C1648      C1649   1.402       .  A
C1649      C1650   1.397       .  A
C1649      H1654   1.083       .  S
C1650      C1651   1.413       .  A
C1650      H1655   1.079       .  S
C1651      C1652   1.409       .  A
C1652      H1656   1.083       .  S
C1657      C1658   1.406       .  A
C1657      C1662   1.404       .  A
C1657      H1663   1.083       .  S
C1658      C1659   1.404       .  A
C1659      C1660   1.393       .  A
C1659      H1664   1.083       .  S
C1660      C1661   1.412       .  A
C1660      H1665   1.080       .  S
C1661      C1662   1.412       .  A
C1662      H1666   1.083       .  S
C1667      C1668   1.404       .  A
C1667      C1672   1.391       .  A
C1667      H1673   1.083       .  S
C1668      C1669   1.403       .  A
C1669      C1670   1.399       .  A
C1669      H1674   1.083       .  S
C1670      C1671   1.412       .  A
C1670      H1675   1.083       .  S
C1671      C1672   1.410       .  A
C1672      H1676   1.081       .  S
C1677      C1678   1.406       .  A
C1677      C1682   1.402       .  A
C1677      H1683   1.083       .  S
C1678      C1679   1.402       .  A
C1679      C1680   1.391       .  A
C1679      H1684   1.083       .  S
C1680      C1681   1.413       .  A
C1680      H1685   1.081       .  S
C1681      C1682   1.410       .  A
C1682      H1686   1.083       .  S
C1687      C1688   1.404       .  A
C1687      C1692   1.393       .  A
C1687      H1693   1.083       .  S
C1688      C1689   1.403       .  A
C1689      C1690   1.399       .  A
C1689      H1694   1.083       .  S
C1690      C1691   1.411       .  A
C1690      H1695   1.083       .  S
C1691      C1692   1.411       .  A
C1692      H1696   1.081       .  S
