geometry optimzed in LAMMPS
_audit_creation_date              2020-11-30 
_audit_creation_method            'lammps2cif' 
_symmetry_space_group_name_H-M    'P1' 
_symmetry_Int_Tables_number       1 
_symmetry_cell_setting            triclinic 
loop_ 
_symmetry_equiv_pos_as_xyz 
  x,y,z 
_cell_length_a                    49.80116676 
_cell_length_b                    49.85694861703789 
_cell_length_c                    50.315516070620525 
_cell_angle_alpha                 90.17953346080475 
_cell_angle_beta                  90.04759177290576 
_cell_angle_gamma                 89.98749720601995 
loop_ 
_atom_site_label 
_atom_site_type_symbol 
_atom_site_fract_x 
_atom_site_fract_y 
_atom_site_fract_z 
_atom_site_charge 
O1          O  0.00707644  0.04334050  0.07501957    -0.80800
O2          O  0.99994785  0.03637983  0.42053873    -0.82300
O3          O  0.05099663  0.07067158  0.99602861    -0.79300
O4          O  0.46314518  0.07671153  0.99679942    -0.77700
O5          O  0.42896503  0.04616515  0.99648706    -0.79500
O6          O  0.08091141  0.03592304  0.99580644    -0.80500
O7          O  0.00520217  0.07044448  0.45059128    -0.81800
O8          O  0.00892364  0.07391478  0.04117299    -0.82100
Eu9        Eu  0.00558048  0.05147324  0.99750263     2.39200
O10         O  0.47602772  0.02568429  0.47104824    -0.89600
O11         O  0.03072680  0.02246461  0.02466648    -0.93200
C12         C  0.00892767  0.06768477  0.06611905     1.01500
C13         C  0.00227414  0.06140740  0.42659467     1.01300
C14         C  0.07510472  0.06112167  0.99568472     1.01300
C15         C  0.43799801  0.07042411  0.99605364     0.99100
H16         H  0.04156243  0.03058513  0.45685905     0.28900
O17         O  0.03024416  0.02059682  0.46881258    -1.02000
H18         H  0.46723159  0.03889116  0.03685559     0.28900
O19         O  0.47759840  0.02659806  0.02615477    -1.04500
O20         O  0.99806930  0.44785933  0.42684871    -0.81700
O21         O  0.00156425  0.45324433  0.07649339    -0.81300
O22         O  0.07492781  0.99147553  0.44959351    -0.79700
O23         O  0.42470360  0.00374519  0.45811157    -0.83100
O24         O  0.42515858  0.00476106  0.04135833    -0.80900
O25         O  0.07957462  0.99468607  0.03976662    -0.79600
O26         O  0.04064217  0.41866115  0.99807216    -0.81100
O27         O  0.45372490  0.42416032  0.00016822    -0.83000
O28         O  0.07555041  0.44829293  0.99723932    -0.79700
O29         O  0.42387278  0.45893309  0.99830483    -0.82400
O30         O  0.04044011  0.99153737  0.41953452    -0.78100
O31         O  0.04922833  0.99725682  0.07386254    -0.78200
O32         O  0.45661986  0.00134836  0.07441724    -0.77800
O33         O  0.45451053  0.99723449  0.42426476    -0.81300
O34         O  0.99630515  0.41760000  0.46084849    -0.80700
O35         O  0.99776497  0.42224565  0.04311305    -0.79100
Eu36       Eu  0.99910024  0.99413039  0.44484979     2.39800
Eu37       Eu  0.00299585  0.99802186  0.05426406     2.39600
Eu38       Eu  0.05594925  0.99371662  0.99713107     2.38400
Eu39       Eu  0.44831186  0.00090343  0.99955768     2.39900
Eu40       Eu  0.99848583  0.44405227  0.00040431     2.39800
O41         O  0.47341603  0.47340499  0.02746931    -0.93500
O42         O  0.02670893  0.46624989  0.47232924    -0.92400
C43         C  0.99678617  0.42371435  0.43603903     1.01700
C44         C  0.99947745  0.42870755  0.06777315     1.00400
C45         C  0.06558154  0.99155291  0.42543258     0.99800
C46         C  0.43056898  0.00109221  0.43328924     1.01800
C47         C  0.43202727  0.00401267  0.06594173     1.00700
C48         C  0.07359660  0.99623851  0.06467006     0.99600
C49         C  0.06589668  0.42428954  0.99683932     0.99600
C50         C  0.42968234  0.43360270  0.99868840     1.02200
H51         H  0.03865687  0.45768497  0.03786099     0.29600
O52         O  0.02790992  0.46946268  0.02702107    -1.05700
H53         H  0.45971861  0.45952674  0.46388083     0.31700
O54         O  0.47213356  0.47034688  0.47404239    -1.08200
O55         O  0.00488174  0.20076343  0.17534689    -0.80800
O56         O  0.99665744  0.20833263  0.32912815    -0.82300
O57         O  0.04545888  0.17067807  0.25592539    -0.79300
O58         O  0.45458335  0.17518370  0.25371397    -0.77700
O59         O  0.42427380  0.20949328  0.25011968    -0.79500
O60         O  0.07768521  0.20328984  0.25678593    -0.80500
O61         O  0.99795652  0.17426038  0.29853345    -0.81800
O62         O  0.00113110  0.17071867  0.20957484    -0.82100
Eu63       Eu  0.00064061  0.19373853  0.25289513     2.39200
O64         O  0.47345616  0.22394330  0.27680213    -0.89600
O65         O  0.02932291  0.21857189  0.22471628    -0.93200
C66         C  0.00311878  0.17657738  0.18462049     1.01500
C67         C  0.99687328  0.18323628  0.32277005     1.01300
C68         C  0.07025585  0.17866033  0.25746983     1.01300
C69         C  0.43032331  0.18446601  0.25261918     0.99100
H70         H  0.03721412  0.21040652  0.29208627     0.28900
O71         O  0.02675381  0.22144138  0.28017057    -1.02000
H72         H  0.46496502  0.21053936  0.21218654     0.28900
O73         O  0.47652884  0.22165354  0.22303627    -1.04500
O74         O  0.99944742  0.29586958  0.32475819    -0.81700
O75         O  0.00853412  0.29118917  0.17231402    -0.81300
O76         O  0.07581105  0.24681830  0.29561079    -0.79700
O77         O  0.42264941  0.25251131  0.28752884    -0.83100
O78         O  0.42977522  0.25118283  0.20370314    -0.80900
O79         O  0.08170262  0.24470288  0.21162459    -0.79600
O80         O  0.05068075  0.32251557  0.25022957    -0.81100
O81         O  0.46335974  0.32743754  0.24456170    -0.83000
O82         O  0.08032543  0.28779379  0.25292316    -0.79700
O83         O  0.42944472  0.29661882  0.24498981    -0.82400
O84         O  0.04410238  0.24942987  0.32825176    -0.78100
O85         O  0.05210338  0.24627180  0.17694273    -0.78200
O86         O  0.46124086  0.24848958  0.17089918    -0.77800
O87         O  0.45204570  0.25010171  0.32232011    -0.81300
O88         O  0.00416393  0.32628922  0.29109021    -0.80700
O89         O  0.00905370  0.32308589  0.20514232    -0.79100
Eu90       Eu  0.99940044  0.25082515  0.30515862     2.39800
Eu91       Eu  0.00532748  0.24659676  0.19481002     2.39600
Eu92       Eu  0.05534814  0.24605911  0.25238594     2.38400
Eu93       Eu  0.44953920  0.25153271  0.24747508     2.39900
Eu94       Eu  0.00546859  0.30256181  0.24860359     2.39800
O95         O  0.47854438  0.27623671  0.22029365    -0.93500
O96         O  0.02932311  0.27535193  0.27818234    -0.92400
C97         C  0.00179522  0.32000127  0.31581640     1.01700
C98         C  0.00982890  0.31586444  0.18058385     1.00400
C99         C  0.06882382  0.24783563  0.32011464     0.99800
C100        C  0.42789751  0.25078865  0.31247522     1.01800
C101        C  0.43659890  0.25018549  0.17912664     1.00700
C102        C  0.07626541  0.24576199  0.18662889     0.99600
C103        C  0.07472847  0.31291223  0.25174518     0.99600
C104        C  0.43833160  0.32092536  0.24405065     1.02200
H105        H  0.04453592  0.28395409  0.21253840     0.29600
O106        O  0.03201556  0.27356379  0.22290669    -1.05700
H107        H  0.46381108  0.29066217  0.28544929     0.31700
O108        O  0.47537730  0.27861346  0.27565553    -1.08200
O109        O  0.32756233  0.49314359  0.20411861    -0.80800
O110        O  0.17594625  0.49801164  0.20896282    -0.82300
O111        O  0.25056140  0.44819623  0.17698198    -0.79300
O112        O  0.24919671  0.03733365  0.17177060    -0.77700
O113        O  0.25178758  0.07164013  0.20203428    -0.79500
O114        O  0.25007691  0.41816532  0.21130865    -0.80500
O115        O  0.20590360  0.49494614  0.17465123    -0.81800
O116        O  0.29559341  0.49424516  0.17154124    -0.82100
Eu117      Eu  0.25125738  0.49444563  0.19483510     2.39200
O118        O  0.22624945  0.02327925  0.22221076    -0.89600
O119        O  0.27770050  0.46755304  0.22307188    -0.93200
C120        C  0.32032917  0.49332105  0.17959338     1.01500
C121        C  0.18173813  0.49653386  0.18399947     1.01300
C122        C  0.25024996  0.42402421  0.18630962     1.01300
C123        C  0.24962203  0.06250031  0.17805098     0.99100
H124        H  0.21227473  0.45832406  0.21477544     0.28900
O125        O  0.22425078  0.46975758  0.22475095    -1.02000
H126        H  0.29123293  0.03298928  0.20902034     0.28900
O127        O  0.27988219  0.02260656  0.22062877    -1.04500
O128        O  0.17850233  0.50013926  0.29637705    -0.81700
O129        O  0.33125615  0.49663476  0.28867141    -0.81300
O130        O  0.20611528  0.42245971  0.25500960    -0.79700
O131        O  0.20863897  0.07418404  0.24693795    -0.83100
O132        O  0.29952409  0.07263702  0.24639773    -0.80900
O133        O  0.29281083  0.41925477  0.25397389    -0.79600
O134        O  0.25447682  0.45941428  0.32887769    -0.81100
O135        O  0.25609819  0.04617792  0.32330266    -0.83000
O136        O  0.25072019  0.42494016  0.29896113    -0.79700
O137        O  0.25612107  0.07682021  0.28953131    -0.82400
O138        O  0.17574939  0.45666277  0.25386112    -0.78100
O139        O  0.32636877  0.45009969  0.24899766    -0.78200
O140        O  0.33019655  0.03848433  0.24796056    -0.77800
O141        O  0.17663190  0.04124332  0.24802644    -0.81300
O142        O  0.21246415  0.50258802  0.32684704    -0.80700
O143        O  0.30129368  0.50086860  0.32276890    -0.79100
Eu144      Eu  0.19948184  0.49912122  0.25179157     2.39800
Eu145      Eu  0.30640789  0.49562060  0.24732943     2.39600
Eu146      Eu  0.25063806  0.44345328  0.25332060     2.38400
Eu147      Eu  0.25393127  0.05227828  0.24698209     2.39900
Eu148      Eu  0.25560067  0.50168827  0.30360286     2.39800
O149        O  0.28119492  0.02536579  0.27442630    -0.93500
O150        O  0.22614091  0.47319203  0.28006973    -0.92400
C151        C  0.18738187  0.50123685  0.32053053     1.01700
C152        C  0.32541533  0.49858818  0.31347345     1.00400
C153        C  0.18189079  0.43162749  0.25477332     0.99800
C154        C  0.18391364  0.06591697  0.24679386     1.01800
C155        C  0.32392661  0.06363425  0.24724006     1.00700
C156        C  0.31767715  0.42579671  0.25177952     0.99600
C157        C  0.25231157  0.43424458  0.32295934     0.99600
C158        C  0.25646837  0.07049649  0.31444668     1.02200
H159        H  0.29131750  0.46046213  0.28861126     0.29600
O160        O  0.28003972  0.47132273  0.27734740    -1.05700
H161        H  0.21635240  0.03884067  0.28695660     0.31700
O162        O  0.22720939  0.02696826  0.27626385    -1.08200
O163        O  0.20453776  0.17466566  0.50531767    -0.80800
O164        O  0.21405421  0.32765405  0.49389101    -0.82300
O165        O  0.17683014  0.25259335  0.04320278    -0.79300
O166        O  0.17374773  0.25156848  0.46150336    -0.77700
O167        O  0.20331168  0.24581254  0.42722196    -0.79500
O168        O  0.20854541  0.25207330  0.07611074    -0.80500
O169        O  0.18024373  0.29713022  0.49869439    -0.81800
O170        O  0.17417463  0.20895838  0.50274628    -0.82100
Eu171      Eu  0.19927336  0.25171137  0.50259640     2.39200
O172        O  0.22620674  0.27547855  0.47243680    -0.89600
O173        O  0.22382947  0.22356025  0.02947430    -0.93200
C174        C  0.18026573  0.18374772  0.50366588     1.01500
C175        C  0.18904941  0.32123492  0.49523199     1.01300
C176        C  0.18384130  0.25277196  0.06788143     1.01300
C177        C  0.17916603  0.24858797  0.43668010     0.99100
H178        H  0.21682851  0.28975709  0.03622786     0.28900
O179        O  0.22745196  0.27742123  0.02579108    -1.02000
H180        H  0.21123066  0.21000988  0.46615047     0.28900
O181        O  0.22344550  0.22121361  0.47611325    -1.04500
O182        O  0.30081217  0.32291447  0.49683033    -0.81700
O183        O  0.29380201  0.17138389  0.50152075    -0.81300
O184        O  0.25590435  0.29568318  0.07384023    -0.79700
O185        O  0.25179505  0.28751398  0.42102331    -0.83100
O186        O  0.24940933  0.19881034  0.42743856    -0.80900
O187        O  0.25264318  0.20897977  0.07991302    -0.79600
O188        O  0.33036154  0.24503349  0.03968751    -0.81100
O189        O  0.32613364  0.24308191  0.45412891    -0.83000
O190        O  0.30041371  0.25105979  0.07357529    -0.79700
O191        O  0.29391520  0.24202139  0.42175130    -0.82400
O192        O  0.25708235  0.32576118  0.03962240    -0.78100
O193        O  0.24853524  0.17446999  0.05011592    -0.78200
O194        O  0.24852928  0.16881117  0.46179426    -0.77800
O195        O  0.25653394  0.32169824  0.45114735    -0.81300
O196        O  0.33120974  0.28870782  0.49887791    -0.80700
O197        O  0.32798335  0.20183082  0.49900258    -0.79100
Eu198      Eu  0.25603518  0.30283895  0.49664681     2.39800
Eu199      Eu  0.25006173  0.19428326  0.50420204     2.39600
Eu200      Eu  0.25370012  0.25058501  0.05445834     2.38400
Eu201      Eu  0.25022360  0.24497827  0.44565202     2.39900
Eu202      Eu  0.30673700  0.24609346  0.49860104     2.39800
O203        O  0.27678246  0.21892630  0.47453819    -0.93500
O204        O  0.28144143  0.27381695  0.02460854    -0.92400
C205        C  0.32498211  0.31380587  0.49838128     1.01700
C206        C  0.31895422  0.17761485  0.50006260     1.00400
C207        C  0.25682546  0.31981215  0.06466999     0.99800
C208        C  0.25452926  0.31257328  0.42710888     1.01800
C209        C  0.24894102  0.17461771  0.43670852     1.00700
C210        C  0.25046712  0.18387105  0.07409999     0.99600
C211        C  0.32468060  0.24866682  0.06427217     0.99600
C212        C  0.31872080  0.24182364  0.42959167     1.02200
H213        H  0.28943729  0.20889006  0.03988949     0.29600
O214        O  0.27846346  0.21993640  0.02849967    -1.05700
H215        H  0.29185444  0.28251226  0.45822429     0.31700
O216        O  0.28036300  0.27256332  0.47007471    -1.08200
C217        C  0.25053356  0.16464955  0.09664990    -0.05900
C218        C  0.25895121  0.17295308  0.12213645    -0.05800
C219        C  0.26008071  0.15477229  0.14321315    -0.24000
C220        C  0.25267020  0.12792653  0.13931926     0.18200
C221        C  0.24357415  0.11948211  0.11402639     0.15500
C222        C  0.24257229  0.13783821  0.09290411    -0.19000
C223        C  0.23595554  0.09269621  0.11016927    -0.20800
C224        C  0.23789993  0.07427962  0.13096870    -0.13400
C225        C  0.24734071  0.08228766  0.15614264     0.03300
C226        C  0.25444240  0.10933789  0.16019900    -0.25500
H227        H  0.26515439  0.19346547  0.12573692     0.08400
H228        H  0.26699910  0.16166130  0.16248886     0.12000
H229        H  0.23573608  0.13117607  0.07352214     0.11900
H230        H  0.22870553  0.08591706  0.09098063     0.11700
H231        H  0.23191312  0.05371284  0.12732108     0.12200
H232        H  0.26172694  0.11587746  0.17946650     0.14100
C233        C  0.25036701  0.40140339  0.16692134    -0.05900
C234        C  0.24779799  0.37467070  0.17555296    -0.05800
C235        C  0.24874213  0.35338553  0.15736335    -0.24000
C236        C  0.25238808  0.35835394  0.13016578     0.18200
C237        C  0.25481680  0.38506613  0.12124400     0.15500
C238        C  0.25364570  0.40634210  0.13957441    -0.19000
C239        C  0.25854850  0.39010153  0.09410441    -0.20800
C240        C  0.25964132  0.36892004  0.07587196    -0.13400
C241        C  0.25697728  0.34219533  0.08434656     0.03300
C242        C  0.25355898  0.33711343  0.11172852    -0.25500
H243        H  0.24513874  0.37013598  0.19642178     0.08400
H244        H  0.24675109  0.33303198  0.16459605     0.12000
H245        H  0.25565866  0.42674918  0.13249298     0.11900
H246        H  0.26054042  0.41047409  0.08693524     0.11700
H247        H  0.26239156  0.37354891  0.05504154     0.12200
H248        H  0.25146264  0.31668206  0.11872749     0.14100
C249        C  0.25151198  0.41469583  0.34529031    -0.05900
C250        C  0.24507042  0.42326557  0.37120330    -0.05800
C251        C  0.24445992  0.40507116  0.39232665    -0.24000
C252        C  0.25043976  0.37790630  0.38806706     0.18200
C253        C  0.25676322  0.36896093  0.36213317     0.15500
C254        C  0.25713988  0.38732913  0.34093706    -0.19000
C255        C  0.26261304  0.34177280  0.35784248    -0.20800
C256        C  0.26188673  0.32356542  0.37893826    -0.13400
C257        C  0.25556196  0.33216552  0.40486849     0.03300
C258        C  0.25008771  0.35954326  0.40926813    -0.25500
H259        H  0.24030503  0.44409454  0.37515795     0.08400
H260        H  0.23934800  0.41227752  0.41202420     0.12000
H261        H  0.26213129  0.38034603  0.32112272     0.11900
H262        H  0.26764381  0.33454752  0.33813120     0.11700
H263        H  0.26646293  0.30270002  0.37494663     0.12200
H264        H  0.24513176  0.36651327  0.42909617     0.14100
C265        C  0.25690588  0.09272596  0.33430826    -0.05900
C266        C  0.26252637  0.11917176  0.32635510    -0.05800
C267        C  0.26213293  0.14027320  0.34475962    -0.24000
C268        C  0.25602036  0.13547041  0.37154814     0.18200
C269        C  0.25064958  0.10900564  0.37992615     0.15500
C270        C  0.25117052  0.08782622  0.36132114    -0.19000
C271        C  0.24476126  0.10422647  0.40677677    -0.20800
C272        C  0.24420640  0.12543231  0.42514733    -0.13400
C273        C  0.24927924  0.15198694  0.41707866     0.03300
C274        C  0.25518668  0.15671595  0.39005929    -0.25500
H275        H  0.26723251  0.12362121  0.30582422     0.08400
H276        H  0.26649541  0.16041362  0.33798831     0.12000
H277        H  0.24674222  0.06760943  0.36785616     0.11900
H278        H  0.24060457  0.08405656  0.41360218     0.11700
H279        H  0.23964303  0.12100914  0.44570843     0.12200
H280        H  0.25938967  0.17693086  0.38339365     0.14100
C281        C  0.40777402  0.16504487  0.25423006    -0.05900
C282        C  0.38221657  0.17327091  0.26302379    -0.05800
C283        C  0.36082435  0.15504506  0.26406225    -0.24000
C284        C  0.36443197  0.12831795  0.25593489     0.18200
C285        C  0.39010812  0.11982088  0.24738302     0.15500
C286        C  0.41157533  0.13812546  0.24674832    -0.19000
C287        C  0.39385395  0.09318116  0.23928154    -0.20800
C288        C  0.37236762  0.07513856  0.23935413    -0.13400
C289        C  0.34653524  0.08328896  0.24740318     0.03300
C290        C  0.34280149  0.11003040  0.25587244    -0.25500
H291        H  0.37878074  0.19381657  0.26922654     0.08400
H292        H  0.34138433  0.16193864  0.27091890     0.12000
H293        H  0.43112069  0.13152525  0.23986196     0.11900
H294        H  0.41340153  0.08631192  0.23269255     0.11700
H295        H  0.37595174  0.05475994  0.23274088     0.12200
H296        H  0.32314589  0.11658006  0.26247319     0.14100
C297        C  0.41852879  0.34294480  0.24280979    -0.05900
C298        C  0.42578124  0.36795402  0.23216447    -0.05800
C299        C  0.40742404  0.38910381  0.23167180    -0.24000
C300        C  0.38159320  0.38572023  0.24210465     0.18200
C301        C  0.37406717  0.36064255  0.25285227     0.15500
C302        C  0.39251385  0.33938658  0.25300216    -0.19000
C303        C  0.34826343  0.35729767  0.26337097    -0.20800
C304        C  0.33004225  0.37856122  0.26310722    -0.13400
C305        C  0.33734009  0.40361898  0.25246362     0.03300
C306        C  0.36322258  0.40703164  0.24201355    -0.25500
H307        H  0.44567596  0.37113702  0.22408895     0.08400
H308        H  0.41348878  0.40815452  0.22328448     0.12000
H309        H  0.38679487  0.32026464  0.26150843     0.11900
H310        H  0.34216660  0.33825951  0.27177447     0.11700
H311        H  0.31022885  0.37539927  0.27139746     0.12200
H312        H  0.36898549  0.42615020  0.23354133     0.14100
C313        C  0.16165335  0.08544489  0.24490834    -0.05900
C314        C  0.13912847  0.07901914  0.22921690    -0.05800
C315        C  0.11651941  0.09558508  0.22893469    -0.24000
C316        C  0.11575590  0.11877200  0.24467304     0.18200
C317        C  0.13838444  0.12556728  0.26042084     0.15500
C318        C  0.16128547  0.10893872  0.26033058    -0.19000
C319        C  0.13763059  0.14883988  0.27604899    -0.20800
C320        C  0.11499143  0.16543084  0.27568028    -0.13400
C321        C  0.09240762  0.15893889  0.26001891     0.03300
C322        C  0.09283684  0.13535720  0.24474691    -0.25500
H323        H  0.13896258  0.06091871  0.21723411     0.08400
H324        H  0.09951205  0.09008474  0.21662733     0.12000
H325        H  0.17837869  0.11377481  0.27281634     0.11900
H326        H  0.15467779  0.15441838  0.28827439     0.11700
H327        H  0.11522670  0.18364511  0.28748895     0.12200
H328        H  0.07579850  0.13047954  0.23220966     0.14100
C329        C  0.15929281  0.41247160  0.25511681    -0.05900
C330        C  0.13278268  0.42218280  0.25652601    -0.05800
C331        C  0.11107041  0.40465685  0.25597812    -0.24000
C332        C  0.11537208  0.37703233  0.25411010     0.18200
C333        C  0.14188777  0.36691923  0.25281886     0.15500
C334        C  0.16371367  0.38468613  0.25331171    -0.19000
C335        C  0.14607195  0.33921923  0.25105237    -0.20800
C336        C  0.12420398  0.32174557  0.25071789    -0.13400
C337        C  0.09771735  0.33164532  0.25201840     0.03300
C338        C  0.09351369  0.35940510  0.25361355    -0.25500
H339        H  0.12868172  0.44346750  0.25795468     0.08400
H340        H  0.09089624  0.41273942  0.25701316     0.12000
H341        H  0.18400502  0.37689046  0.25210502     0.11900
H342        H  0.16621749  0.33106052  0.24999766     0.11700
H343        H  0.12811396  0.30041688  0.24936285     0.12200
H344        H  0.07326993  0.36734025  0.25466244     0.14100
C345        C  0.34833962  0.25021584  0.08227048    -0.05900
C346        C  0.37456624  0.24978567  0.07147608    -0.05800
C347        C  0.39723242  0.25012073  0.08785304    -0.24000
C348        C  0.39432261  0.25095859  0.11547642     0.18200
C349        C  0.36813725  0.25220666  0.12644069     0.15500
C350        C  0.34539545  0.25188841  0.10987984    -0.19000
C351        C  0.36498976  0.25338873  0.15391143    -0.20800
C352        C  0.38733554  0.25284059  0.17044620    -0.13400
C353        C  0.41366366  0.25110241  0.16009163     0.03300
C354        C  0.41700936  0.25035633  0.13234268    -0.25500
H355        H  0.37773330  0.24895325  0.05019880     0.08400
H356        H  0.41700154  0.24945966  0.07888930     0.12000
H357        H  0.32547306  0.25251067  0.11852772     0.11900
H358        H  0.34516285  0.25451689  0.16270736     0.11700
H359        H  0.38370473  0.25364619  0.19164188     0.12200
H360        H  0.43701231  0.24917033  0.12394114     0.14100
C361        C  0.09954020  0.24703126  0.16805268    -0.05900
C362        C  0.12598774  0.24318217  0.17739824    -0.05800
C363        C  0.14790749  0.24406515  0.15998425    -0.24000
C364        C  0.14394948  0.24898891  0.13283829     0.18200
C365        C  0.11760444  0.25371042  0.12342039     0.15500
C366        C  0.09567731  0.25273241  0.14098569    -0.19000
C367        C  0.11350518  0.25901842  0.09645324    -0.20800
C368        C  0.13510631  0.25899750  0.07881233    -0.13400
C369        C  0.16148948  0.25377141  0.08762764     0.03300
C370        C  0.16575443  0.24901806  0.11490900    -0.25500
H371        H  0.12979617  0.23916121  0.19820229     0.08400
H372        H  0.16792761  0.24067036  0.16772901     0.12000
H373        H  0.07558400  0.25630949  0.13349453     0.11900
H374        H  0.09349833  0.26291528  0.08890115     0.11700
H375        H  0.13098991  0.26299543  0.05806453     0.12200
H376        H  0.18585456  0.24493772  0.12211312     0.14100
C377        C  0.15561366  0.24805933  0.41830875    -0.05900
C378        C  0.12924040  0.24977585  0.42854322    -0.05800
C379        C  0.10686688  0.24934545  0.41171060    -0.24000
C380        C  0.11023597  0.24749368  0.38416804     0.18200
C381        C  0.13655318  0.24554511  0.37367891     0.15500
C382        C  0.15896788  0.24567128  0.39071204    -0.19000
C383        C  0.14013514  0.24390526  0.34623035    -0.20800
C384        C  0.11805148  0.24467374  0.32929898    -0.13400
C385        C  0.09159742  0.24684378  0.33928204     0.03300
C386        C  0.08785491  0.24797340  0.36693874    -0.25500
H387        H  0.12576156  0.25148279  0.44971804     0.08400
H388        H  0.08694462  0.25076425  0.42025006     0.12000
H389        H  0.17899880  0.24422443  0.38241886     0.11900
H390        H  0.16008601  0.24234191  0.33777507     0.11700
H391        H  0.12194883  0.24362742  0.30815049     0.12200
H392        H  0.06773923  0.24954047  0.37500372     0.14100
C393        C  0.40427706  0.24899802  0.33063109    -0.05900
C394        C  0.37788945  0.25208705  0.32073027    -0.05800
C395        C  0.35559189  0.25052500  0.33764631    -0.24000
C396        C  0.35908340  0.24563809  0.36485523     0.18200
C397        C  0.38539300  0.24169986  0.37477772     0.15500
C398        C  0.40768456  0.24341794  0.35773690    -0.19000
C399        C  0.38914143  0.23638058  0.40174561    -0.20800
C400        C  0.36728232  0.23574713  0.41894942    -0.13400
C401        C  0.34094033  0.24046457  0.40977476     0.03300
C402        C  0.33692129  0.24499874  0.38240562    -0.25500
H403        H  0.37439211  0.25598757  0.29985049     0.08400
H404        H  0.33565755  0.25335185  0.32946686     0.12000
H405        H  0.42770919  0.24046452  0.36566325     0.11900
H406        H  0.40909788  0.23304312  0.40967525     0.11700
H407        H  0.37123261  0.23184869  0.43974711     0.12200
H408        H  0.31684026  0.24865049  0.37491485     0.14100
C409        C  0.40738283  0.41390714  0.99671051    -0.05900
C410        C  0.38251411  0.42147558  0.98583043    -0.05800
C411        C  0.36158487  0.40290134  0.98347980    -0.24000
C412        C  0.36497114  0.37643818  0.99227686     0.18200
C413        C  0.38990109  0.36852266  0.00316239     0.15500
C414        C  0.40986113  0.38948180  0.50813079    -0.19000
C415        C  0.39362355  0.34371242  0.51086082    -0.20800
C416        C  0.37286205  0.32517100  0.50816449    -0.13400
C417        C  0.34718784  0.33133646  0.99962573     0.03300
C418        C  0.34379268  0.35783940  0.99058848    -0.25500
H419        H  0.37930734  0.44175671  0.97885566     0.08400
H420        H  0.34266646  0.40930714  0.97495028     0.12000
H421        H  0.42962683  0.38266741  0.51413415     0.11900
H422        H  0.41330712  0.33679073  0.51697061     0.11700
H423        H  0.37698162  0.30431707  0.51253369     0.12200
H424        H  0.32472164  0.36398253  0.98216694     0.14100
C425        C  0.33506776  0.15134917  0.00129335    -0.05900
C426        C  0.32963920  0.12868332  0.50287223    -0.05800
C427        C  0.34778833  0.10743224  0.50400112    -0.24000
C428        C  0.37540644  0.11219874  0.50211256     0.18200
C429        C  0.38069837  0.13501497  0.99473360     0.15500
C430        C  0.36216080  0.15614614  0.99513625    -0.19000
C431        C  0.40769649  0.13982581  0.98861408    -0.20800
C432        C  0.42621891  0.11879666  0.98874504    -0.13400
C433        C  0.41808403  0.09252785  0.99492836     0.03300
C434        C  0.39360889  0.09075045  0.50281400    -0.25500
H435        H  0.30842397  0.12420234  0.50437868     0.08400
H436        H  0.34017291  0.08720783  0.50623461     0.12000
H437        H  0.36887211  0.17628913  0.99053712     0.11900
H438        H  0.41453421  0.15988994  0.98390428     0.11700
H439        H  0.44697810  0.12314738  0.98405158     0.12200
H440        H  0.38605367  0.07050748  0.50516834     0.14100
C441        C  0.16750531  0.34136652  0.99634525    -0.05900
C442        C  0.17748932  0.36972612  0.48892005    -0.05800
C443        C  0.15883106  0.39057529  0.48838544    -0.24000
C444        C  0.13145890  0.38517730  0.49179511     0.18200
C445        C  0.12148778  0.35818018  0.99340776     0.15500
C446        C  0.13970739  0.33663268  0.99386881    -0.19000
C447        C  0.09380267  0.35363637  0.99106595    -0.20800
C448        C  0.07579022  0.37513809  0.99179774    -0.13400
C449        C  0.08510268  0.40163380  0.99477635    -0.02300
C450        C  0.11281750  0.40615777  0.49261373    -0.25500
H451        H  0.19855549  0.37458818  0.48665483     0.08400
H452        H  0.16585743  0.41096558  0.48574749     0.12000
H453        H  0.13222043  0.31627334  0.99229380     0.11900
H454        H  0.08603896  0.33343015  0.98906726     0.11700
H455        H  0.05450853  0.37093353  0.99029977     0.12200
H456        H  0.11984897  0.42661734  0.49052068     0.14100
C457        C  0.15689685  0.16331954  0.99815969    -0.05900
C458        C  0.13208776  0.17195923  0.49383102    -0.05800
C459        C  0.11134721  0.15324338  0.49084279    -0.24000
C460        C  0.11590449  0.12596308  0.49588025     0.18200
C461        C  0.14059777  0.11715378  0.99911419     0.15500
C462        C  0.16156147  0.13573886  0.00193351    -0.19000
C463        C  0.14519481  0.08973028  0.00308144    -0.20800
C464        C  0.12400542  0.07148385  0.00129741    -0.13400
C465        C  0.09778375  0.08032119  0.99559556     0.03300
C466        C  0.09506241  0.10709794  0.49306294    -0.25500
H467        H  0.12790273  0.19281666  0.48952811     0.08400
H468        H  0.09171019  0.16013145  0.48455702     0.12000
H469        H  0.18145010  0.12867903  0.00719950     0.11900
H470        H  0.16508801  0.08243420  0.00797366     0.11700
H471        H  0.12809118  0.05049344  0.00503913     0.12200
H472        H  0.07535052  0.11384023  0.48683769     0.14100
C473        C  0.34708681  0.99844473  0.33353881    -0.05900
C474        C  0.37351419  0.99478547  0.32416712    -0.05800
C475        C  0.39520818  0.99504701  0.34166733    -0.24000
C476        C  0.39090552  0.99891081  0.36888114     0.18200
C477        C  0.36571189  0.50101980  0.37731161     0.15500
C478        C  0.34399811  0.50133505  0.35961626    -0.19000
C479        C  0.36135278  0.50442827  0.40453678    -0.20800
C480        C  0.38288400  0.50396028  0.42219679    -0.13400
C481        C  0.40806302  0.00221938  0.41410597     0.03300
C482        C  0.41254662  0.99885738  0.38670697    -0.25500
H483        H  0.37753445  0.99166804  0.30323275     0.08400
H484        H  0.41530357  0.99213131  0.33392478     0.12000
H485        H  0.32383967  0.50431908  0.36718783     0.11900
H486        H  0.34124192  0.50735686  0.41222570     0.11700
H487        H  0.37869520  0.50650783  0.44316102     0.12200
H488        H  0.43275325  0.99588039  0.37925397     0.14100
C489        C  0.08464787  0.99290152  0.40260567    -0.05900
C490        C  0.07498451  0.99567889  0.37633250    -0.05800
C491        C  0.09269177  0.99846865  0.35489766    -0.24000
C492        C  0.12050833  0.99847834  0.35916384     0.18200
C493        C  0.13183458  0.49525169  0.38606789     0.15500
C494        C  0.11398621  0.49265329  0.40756270    -0.19000
C495        C  0.15953624  0.49342087  0.39019599    -0.20800
C496        C  0.17728515  0.49584003  0.36891855    -0.13400
C497        C  0.16658012  0.00040168  0.34232170     0.03300
C498        C  0.13863998  0.00089914  0.33775735    -0.25500
H499        H  0.05362914  0.99600480  0.37226503     0.08400
H500        H  0.08461153  0.00063047  0.33501051     0.12000
H501        H  0.12182833  0.48932530  0.42737936     0.11900
H502        H  0.16752865  0.48993891  0.40992082     0.11700
H503        H  0.19856097  0.49393159  0.37293724     0.12200
H504        H  0.13101935  0.00278340  0.31766140     0.14100
C505        C  0.09677957  0.99703591  0.08356817    -0.05900
C506        C  0.12307901  0.00102326  0.07387607    -0.05800
C507        C  0.14521237  0.00137315  0.09104888    -0.24000
C508        C  0.14170012  0.99770641  0.11842395     0.18200
C509        C  0.11396627  0.49658042  0.13032447     0.15500
C510        C  0.09186295  0.49579355  0.11280907    -0.19000
C511        C  0.11045571  0.49197198  0.15753152    -0.20800
C512        C  0.13250939  0.49198579  0.17470384    -0.13400
C513        C  0.16011322  0.99438845  0.16348447     0.03300
C514        C  0.16389660  0.99787480  0.13593232    -0.25500
H515        H  0.12665872  0.00395783  0.05285807     0.08400
H516        H  0.16509229  0.00446601  0.08287015     0.12000
H517        H  0.07197184  0.49162195  0.12048145     0.11900
H518        H  0.09064722  0.48810614  0.16553960     0.11700
H519        H  0.12900181  0.48807252  0.19557297     0.12200
H520        H  0.18394856  0.00097654  0.12815474     0.14100
C521        C  0.34408962  0.99383788  0.16188166    -0.05900
C522        C  0.36759040  0.48178149  0.16827499    -0.05800
C523        C  0.38984282  0.48226738  0.15155670    -0.24000
C524        C  0.38784023  0.49343615  0.12622842     0.18200
C525        C  0.36435117  0.00603734  0.11943053     0.15500
C526        C  0.34190772  0.00540963  0.13652249    -0.19000
C527        C  0.36248962  0.01742141  0.09409447    -0.20800
C528        C  0.38471020  0.01725895  0.07710600    -0.13400
C529        C  0.40944534  0.00600333  0.08515161     0.03300
C530        C  0.41045389  0.49426103  0.10955422    -0.25500
H531        H  0.36999179  0.47311070  0.18784584     0.08400
H532        H  0.40870002  0.47403635  0.15854979     0.12000
H533        H  0.32302185  0.01421283  0.13030172     0.11900
H534        H  0.34378374  0.02614150  0.08727679     0.11700
H535        H  0.38244354  0.02586397  0.05748631     0.12200
H536        H  0.42939501  0.48597364  0.11627814     0.14100
C537        C  0.00114411  0.08090101  0.40428296    -0.05900
C538        C  0.49924509  0.07173072  0.37777681    -0.05800
C539        C  0.49731518  0.08981628  0.35668820    -0.24000
C540        C  0.49746434  0.11750242  0.36151425     0.18200
C541        C  0.99959253  0.12699066  0.38795637     0.15500
C542        C  0.00138979  0.10870844  0.40911878    -0.19000
C543        C  0.00013944  0.15465534  0.39276494    -0.20800
C544        C  0.99878292  0.17274382  0.37163761    -0.13400
C545        C  0.99671741  0.16363454  0.34513283     0.03300
C546        C  0.49588142  0.13582663  0.34033147    -0.25500
H547        H  0.49911815  0.05047977  0.37325919     0.08400
H548        H  0.49579765  0.08212222  0.33657672     0.12000
H549        H  0.00288908  0.11618197  0.42931894     0.11900
H550        H  0.00191210  0.16233291  0.41286667     0.11700
H551        H  0.99974260  0.19397211  0.37614321     0.12200
H552        H  0.49435738  0.12838015  0.32012837     0.14100
C553        C  0.00216910  0.34212616  0.33526252    -0.05900
C554        C  0.01216263  0.36740767  0.32791204    -0.05800
C555        C  0.01324986  0.38829400  0.34630914    -0.24000
C556        C  0.00418463  0.38431277  0.37230446     0.18200
C557        C  0.49422001  0.35897946  0.37998887     0.15500
C558        C  0.49326473  0.33805427  0.36141007    -0.19000
C559        C  0.48549419  0.35496471  0.40613318    -0.20800
C560        C  0.48647094  0.37599735  0.42446439    -0.13400
C561        C  0.99593411  0.40140922  0.41680752     0.03300
C562        C  0.00492074  0.40534382  0.39070807    -0.25500
H563        H  0.01948577  0.37099586  0.30797503     0.08400
H564        H  0.02117077  0.40755487  0.34020043     0.12000
H565        H  0.48552602  0.31863776  0.36730482     0.11900
H566        H  0.47790550  0.33561555  0.41238309     0.11700
H567        H  0.47950943  0.37244517  0.44453618     0.12200
H568        H  0.01267476  0.42472966  0.38473128     0.14100
C569        C  0.01222237  0.33825298  0.16132267    -0.05900
C570        C  0.52248726  0.36310991  0.17021997    -0.05800
C571        C  0.52223697  0.38565669  0.15389309    -0.24000
C572        C  0.51163516  0.38405301  0.12822126     0.18200
C573        C  0.00193145  0.35903707  0.11869301     0.15500
C574        C  0.00261619  0.33618876  0.13514993    -0.19000
C575        C  0.99126459  0.35747521  0.09304490    -0.20800
C576        C  0.98993814  0.38034362  0.07716073    -0.13400
C577        C  0.99936017  0.40546513  0.08636011     0.03300
C578        C  0.51032454  0.40708865  0.11205906    -0.25500
H579        H  0.53033899  0.36531007  0.19019144     0.08400
H580        H  0.52988400  0.40449351  0.16157263     0.12000
H581        H  0.99467142  0.31724126  0.12801236     0.11900
H582        H  0.98380190  0.33859493  0.08527190     0.11700
H583        H  0.98149333  0.37823615  0.05742038     0.12200
H584        H  0.51804055  0.42606973  0.11933189     0.14100
C585        C  0.00379579  0.15352248  0.16561496    -0.05900
C586        C  0.00076800  0.12711897  0.17510909    -0.05800
C587        C  0.00208582  0.10509054  0.15788672    -0.24000
C588        C  0.00634266  0.10880661  0.13062704     0.18200
C589        C  0.50956488  0.13512607  0.12080300     0.15500
C590        C  0.50822478  0.15730851  0.13824044    -0.19000
C591        C  0.51389998  0.13882565  0.09356952    -0.20800
C592        C  0.51437540  0.11683929  0.07623504    -0.13400
C593        C  0.01051787  0.09051385  0.08550422     0.03300
C594        C  0.00698697  0.08667639  0.11304014    -0.25500
H595        H  0.99740702  0.12333891  0.19602362     0.08400
H596        H  0.99963808  0.08510702  0.16592562     0.12000
H597        H  0.51072333  0.17740456  0.13046340     0.11900
H598        H  0.51658770  0.15879835  0.08556685     0.11700
H599        H  0.51739367  0.12065753  0.05527961     0.12200
H600        H  0.00408209  0.06660773  0.12073474     0.14100
O601        O  0.00868584  0.04523718  0.57235309    -0.80800
O602        O  0.00160680  0.03736662  0.92210701    -0.82300
O603        O  0.05286379  0.06944975  0.49508293    -0.79300
O604        O  0.46563407  0.07758406  0.49757122    -0.77700
O605        O  0.43051778  0.04836703  0.50082027    -0.79500
O606        O  0.08271315  0.03472245  0.49701025    -0.80500
O607        O  0.00419837  0.07153920  0.95240841    -0.81800
O608        O  0.01057188  0.07527201  0.53802920    -0.82100
Eu609      Eu  0.00697918  0.05099806  0.49590477     2.39200
O610        O  0.47629431  0.02543793  0.97153753    -0.89600
O611        O  0.03193321  0.02212205  0.52332524    -0.93200
C612        C  0.01042013  0.06945074  0.56299388     1.01500
C613        C  0.00268179  0.06232476  0.92833099     1.01300
C614        C  0.07698283  0.06001028  0.49651567     1.01300
C615        C  0.44035984  0.07229568  0.49947055     0.99100
H616        H  0.04148132  0.03199393  0.95849532     0.28900
O617        O  0.02995754  0.02186911  0.97014457    -1.02000
H618        H  0.46944878  0.03992770  0.53683666     0.28900
O619        O  0.47928059  0.02738379  0.52593534    -1.04500
O620        O  0.99839743  0.45043312  0.92469585    -0.81700
O621        O  0.00341400  0.45350474  0.57764486    -0.81300
O622        O  0.07695596  0.99147331  0.95259054    -0.79700
O623        O  0.42501819  0.00168199  0.95721797    -0.83100
O624        O  0.42842033  0.00412113  0.54462171    -0.80900
O625        O  0.08043958  0.99369320  0.53914146    -0.79600
O626        O  0.04075252  0.41763731  0.50025769    -0.81100
O627        O  0.45214895  0.42600782  0.50390484    -0.83000
O628        O  0.07542702  0.44734115  0.49612620    -0.79700
O629        O  0.42250216  0.46093232  0.50154889    -0.82400
O630        O  0.04330208  0.99183546  0.92164433    -0.78100
O631        O  0.05043999  0.99738308  0.57343768    -0.78200
O632        O  0.46040208  0.00127242  0.57721808    -0.77800
O633        O  0.45569896  0.99823352  0.92370227    -0.81300
O634        O  0.99605656  0.41983342  0.95835881    -0.80700
O635        O  0.99827699  0.42174330  0.54521552    -0.79100
Eu636      Eu  0.00034113  0.99503804  0.94483693     2.39800
Eu637      Eu  0.00456705  0.99870711  0.55398640     2.39600
Eu638      Eu  0.05646011  0.99277100  0.49605067     2.38400
Eu639      Eu  0.44851010  0.00239701  0.50066621     2.39900
Eu640      Eu  0.99852760  0.44316150  0.50192055     2.39800
O641        O  0.47435619  0.47359130  0.52832658    -0.93500
O642        O  0.02735682  0.46744873  0.97216402    -0.92400
C643        C  0.99662320  0.42618435  0.93358966     1.01700
C644        C  0.00049834  0.42875576  0.56974096     1.00400
C645        C  0.06828328  0.99100005  0.92834119     0.99800
C646        C  0.43140600  0.00031102  0.93249645     1.01800
C647        C  0.43573964  0.00337216  0.56914242     1.00700
C648        C  0.07467236  0.99563811  0.56416590     0.99600
C649        C  0.06590973  0.42334304  0.49772305     0.99600
C650        C  0.42811541  0.43575654  0.50291386     1.02200
H651        H  0.04009680  0.45719040  0.53742303     0.29600
O652        O  0.02926735  0.46891580  0.52660491    -1.05700
H653        H  0.46051295  0.46102876  0.96202221     0.31700
O654        O  0.47261034  0.47158888  0.97279817    -1.08200
O655        O  0.00579795  0.20109260  0.67419016    -0.80800
O656        O  0.99960548  0.20518641  0.82797947    -0.82300
O657        O  0.04179951  0.16504814  0.75560809    -0.79300
O658        O  0.45434940  0.17373130  0.74852580    -0.77700
O659        O  0.42520402  0.20912840  0.74794454    -0.79500
O660        O  0.07595551  0.19574458  0.75586294    -0.80500
O661        O  0.99656677  0.17146581  0.79713920    -0.81800
O662        O  0.00373970  0.17004451  0.70760674    -0.82100
Eu663      Eu  0.00006601  0.19164022  0.75176555     2.39200
O664        O  0.47533887  0.22200026  0.77800881    -0.89600
O665        O  0.02926226  0.21619508  0.72408593    -0.93200
C666        C  0.00575547  0.17662518  0.68280542     1.01500
C667        C  0.99731751  0.18033650  0.82144203     1.01300
C668        C  0.06683301  0.17165858  0.75725905     1.01300
C669        C  0.43046674  0.18376248  0.74745404     0.99100
H670        H  0.03812403  0.20572035  0.79052281     0.28900
O671        O  0.02817614  0.21760066  0.77897849    -1.02000
H672        H  0.46470746  0.21081304  0.71184903     0.28900
O673        O  0.47660573  0.22108808  0.72314669    -1.04500
O674        O  0.00663364  0.29284720  0.82655657    -0.81700
O675        O  0.00914108  0.29140308  0.67465214    -0.81300
O676        O  0.07969817  0.23868069  0.79444447    -0.79700
O677        O  0.42783952  0.25058292  0.79229578    -0.83100
O678        O  0.42987924  0.25358212  0.70676520    -0.80900
O679        O  0.08184207  0.23631522  0.70930923    -0.79600
O680        O  0.05618764  0.31695694  0.75114193    -0.81100
O681        O  0.46831293  0.32600027  0.74824090    -0.83000
O682        O  0.08531993  0.28161729  0.75099770    -0.79700
O683        O  0.43318189  0.29657380  0.74806681    -0.82400
O684        O  0.04825862  0.24309652  0.82736728    -0.78100
O685        O  0.05144231  0.24221420  0.67568169    -0.78200
O686        O  0.46116346  0.25006108  0.67368846    -0.77800
O687        O  0.45808196  0.24773507  0.82635343    -0.81300
O688        O  0.01234321  0.32355064  0.79334590    -0.80700
O689        O  0.01245231  0.32239066  0.70815994    -0.79100
Eu690      Eu  0.00359001  0.24789424  0.80567671     2.39800
Eu691      Eu  0.00589572  0.24596181  0.69559805     2.39600
Eu692      Eu  0.05799512  0.24098423  0.75149001     2.38400
Eu693      Eu  0.45155141  0.25080879  0.74985451     2.39900
Eu694      Eu  0.01004260  0.29993894  0.75080250     2.39800
O695        O  0.48132819  0.27509238  0.72310666    -0.93500
O696        O  0.03425771  0.27124387  0.77870805    -0.92400
C697        C  0.01013517  0.31705880  0.81802223     1.01700
C698        C  0.01146830  0.31584089  0.68341846     1.00400
C699        C  0.07264779  0.23975611  0.81898088     0.99800
C700        C  0.43375532  0.24879613  0.81716956     1.01800
C701        C  0.43670115  0.25294587  0.68211179     1.00700
C702        C  0.07556020  0.23824785  0.68454475     0.99600
C703        C  0.08006684  0.30690942  0.75092866     0.99600
C704        C  0.44299582  0.32055214  0.74749629     1.02200
H705        H  0.04740884  0.28064980  0.71283486     0.29600
O706        O  0.03485516  0.27064779  0.72351837    -1.05700
H707        H  0.46866748  0.28905437  0.78825237     0.31700
O708        O  0.47931408  0.27677054  0.77774812    -1.08200
O709        O  0.32964856  0.49225071  0.70545141    -0.80800
O710        O  0.17645598  0.49536972  0.71027498    -0.82300
O711        O  0.25410819  0.44799185  0.67805291    -0.79300
O712        O  0.25263695  0.03784155  0.67220790    -0.77700
O713        O  0.25408019  0.07220266  0.70241606    -0.79500
O714        O  0.25341575  0.41736452  0.71188729    -0.80500
O715        O  0.20687052  0.49242712  0.67631455    -0.81800
O716        O  0.29740225  0.49328860  0.67311475    -0.82100
Eu717      Eu  0.25262455  0.49374084  0.69640517     2.39200
O718        O  0.22668056  0.02364733  0.72317110    -0.89600
O719        O  0.27957659  0.46694917  0.72427465    -0.93200
C720        C  0.32225850  0.49218857  0.68098117     1.01500
C721        C  0.18248638  0.49368916  0.68529825     1.01300
C722        C  0.25411361  0.42372338  0.68701682     1.01300
C723        C  0.25342495  0.06305142  0.67832708     0.99100
H724        H  0.21468171  0.45625901  0.71604140     0.28900
O725        O  0.22631479  0.46790108  0.72617584    -1.02000
H726        H  0.29175811  0.03254520  0.70925691     0.28900
O727        O  0.28037259  0.02243849  0.72105903    -1.04500
O728        O  0.18001097  0.49613130  0.79874490    -0.81700
O729        O  0.33303245  0.49882456  0.78919433    -0.81300
O730        O  0.20929977  0.41939687  0.75619264    -0.79700
O731        O  0.21108480  0.07586044  0.74594041    -0.83100
O732        O  0.30071670  0.07178423  0.74513635    -0.80900
O733        O  0.29692654  0.41929559  0.75452911    -0.79600
O734        O  0.25699012  0.45758756  0.82978856    -0.81100
O735        O  0.25463281  0.04586539  0.82405579    -0.83000
O736        O  0.25421441  0.42304065  0.79991882    -0.79700
O737        O  0.25476614  0.07639781  0.79022901    -0.82400
O738        O  0.17785966  0.45267821  0.75461932    -0.78100
O739        O  0.33012191  0.45064936  0.75081903    -0.78200
O740        O  0.33123541  0.03749647  0.74497026    -0.77800
O741        O  0.17865874  0.04340063  0.74901478    -0.81300
O742        O  0.21419524  0.49930615  0.82893370    -0.80700
O743        O  0.30276227  0.50133009  0.82317787    -0.79100
Eu744      Eu  0.20033632  0.49606000  0.75337589     2.39800
Eu745      Eu  0.30801739  0.49524232  0.74846618     2.39600
Eu746      Eu  0.25341907  0.44172350  0.75437211     2.38400
Eu747      Eu  0.25498954  0.05238559  0.74738431     2.39900
Eu748      Eu  0.25683226  0.49951779  0.80472661     2.39800
O749        O  0.28248636  0.02558854  0.77485278    -0.93500
O750        O  0.22790833  0.47050806  0.78121648    -0.92400
C751        C  0.18907252  0.49771766  0.82288242     1.01700
C752        C  0.32697163  0.50079147  0.81388337     1.00400
C753        C  0.18476972  0.42781028  0.75565387     0.99800
C754        C  0.18637431  0.06786617  0.74655455     1.01800
C755        C  0.32503763  0.06263192  0.74425027     1.00700
C756        C  0.32181423  0.42612933  0.75276387     0.99600
C757        C  0.25555995  0.43244013  0.82389945     0.99600
C758        C  0.25424947  0.07010346  0.81513182     1.02200
H759        H  0.29400080  0.45948890  0.78977654     0.29600
O760        O  0.28237844  0.46999255  0.77851423    -1.05700
H761        H  0.21703840  0.03940638  0.78762870     0.31700
O762        O  0.22792538  0.02753943  0.77692425    -1.08200
O763        O  0.20319043  0.17359712  0.00359061    -0.80800
O764        O  0.21226880  0.32490856  0.99590789    -0.82300
O765        O  0.17893119  0.25448258  0.54663488    -0.79300
O766        O  0.17764849  0.25311773  0.95614479    -0.77700
O767        O  0.20847130  0.24536784  0.92329213    -0.79500
O768        O  0.21158561  0.25214764  0.57861489    -0.80500
O769        O  0.17786330  0.29474233  0.99827588    -0.81800
O770        O  0.17337643  0.20808223  0.99892839    -0.82100
Eu771      Eu  0.19881765  0.25028803  0.99991993     2.39200
O772        O  0.22741886  0.27360400  0.97112986    -0.89600
O773        O  0.22568003  0.22477604  0.53067367    -0.93200
C774        C  0.17918790  0.18290503  0.00060569     1.01500
C775        C  0.18705271  0.31887986  0.99682082     1.01300
C776        C  0.18674685  0.25355927  0.57103789     1.01300
C777        C  0.18440378  0.25028103  0.93156847     0.99100
H778        H  0.21825021  0.29163996  0.53746654     0.28900
O779        O  0.22870326  0.27921262  0.52696799    -1.02000
H780        H  0.21184601  0.20856371  0.96393836     0.28900
O781        O  0.22375665  0.21959212  0.97445213    -1.04500
O782        O  0.30063088  0.32113793  0.99725053    -0.81700
O783        O  0.29049684  0.16757533  0.00339711    -0.81300
O784        O  0.25699894  0.29779460  0.57329428    -0.79700
O785        O  0.25454642  0.28586584  0.92143327    -0.83100
O786        O  0.25054212  0.19717015  0.92762530    -0.80900
O787        O  0.25730566  0.21022668  0.58012740    -0.79600
O788        O  0.33134230  0.24703042  0.54086221    -0.81100
O789        O  0.32875398  0.23770990  0.95589792    -0.83000
O790        O  0.30162122  0.25266748  0.57500607    -0.79700
O791        O  0.29713432  0.23760543  0.92300901    -0.82400
O792        O  0.25765005  0.32789743  0.53904825    -0.78100
O793        O  0.25255545  0.17589458  0.55020154    -0.78200
O794        O  0.24891220  0.16740896  0.96212497    -0.77800
O795        O  0.25610213  0.32028600  0.95162446    -0.81300
O796        O  0.33071744  0.28650592  0.99850450    -0.80700
O797        O  0.32475956  0.19783575  0.99996111    -0.79100
Eu798      Eu  0.25563146  0.30119974  0.99671779     2.39800
Eu799      Eu  0.24860969  0.19275619  0.00413703     2.39600
Eu800      Eu  0.25558889  0.25222735  0.55505801     2.38400
Eu801      Eu  0.25262478  0.24303787  0.94534383     2.39900
Eu802      Eu  0.30611767  0.24346401  0.99855474     2.39800
O803        O  0.27702527  0.21588405  0.97459418    -0.93500
O804        O  0.28260985  0.27638920  0.52502907    -0.92400
C805        C  0.32476388  0.31175937  0.99827380     1.01700
C806        C  0.31555453  0.17367872  0.00157776     1.00400
C807        C  0.25774688  0.32190524  0.56404948     0.99800
C808        C  0.25567906  0.31102233  0.92759487     1.01800
C809        C  0.24967958  0.17313771  0.93710743     1.00700
C810        C  0.25563828  0.18507667  0.57418171     0.99600
C811        C  0.32578765  0.24988143  0.56575859     0.99600
C812        C  0.32176714  0.23612818  0.93129480     1.02200
H813        H  0.29133120  0.21089454  0.53934145     0.29600
O814        O  0.27985978  0.22183651  0.52834340    -1.05700
H815        H  0.29315160  0.28085203  0.95869846     0.31700
O816        O  0.28118305  0.27113576  0.97028603    -1.08200
C817        C  0.25734986  0.16552350  0.59656102    -0.05900
C818        C  0.26004495  0.17456156  0.62302765    -0.05800
C819        C  0.26027680  0.15642077  0.64422320    -0.24000
C820        C  0.25770284  0.12880044  0.63951847     0.18200
C821        C  0.25569496  0.11939482  0.61306973     0.15500
C822        C  0.25580755  0.13771013  0.59181836    -0.19000
C823        C  0.25301568  0.09181892  0.60831449    -0.20800
C824        C  0.25205247  0.07373608  0.62948693    -0.13400
C825        C  0.25394789  0.08271726  0.65599904     0.03300
C826        C  0.25682609  0.11047162  0.66078524    -0.25500
H827        H  0.26160369  0.19576835  0.62748222     0.08400
H828        H  0.26204091  0.16405293  0.66433941     0.12000
H829        H  0.25409338  0.13027206  0.57162690     0.11900
H830        H  0.25142512  0.08421283  0.58817738     0.11700
H831        H  0.24981287  0.05260239  0.62499354     0.12200
H832        H  0.25837095  0.11786573  0.68100796     0.14100
C833        C  0.25488846  0.40160315  0.66727833    -0.05900
C834        C  0.25047046  0.37494946  0.67524555    -0.05800
C835        C  0.25042059  0.35415151  0.65661610    -0.24000
C836        C  0.25491596  0.35956072  0.62967411     0.18200
C837        C  0.25984185  0.38614636  0.62141846     0.15500
C838        C  0.25980914  0.40698079  0.64024048    -0.19000
C839        C  0.26445233  0.39144737  0.59443698    -0.20800
C840        C  0.26377711  0.37063122  0.57574489    -0.13400
C841        C  0.25863523  0.34411009  0.58372208     0.03300
C842        C  0.25437810  0.33879407  0.61086178    -0.25500
H843        H  0.24669075  0.37014325  0.69588093     0.08400
H844        H  0.24668181  0.33384194  0.66326976     0.12000
H845        H  0.26350364  0.42736446  0.63376547     0.11900
H846        H  0.26841466  0.41170683  0.58776457     0.11700
H847        H  0.26734932  0.37531630  0.55504639     0.12200
H848        H  0.25037124  0.31849778  0.61742404     0.14100
C849        C  0.25533656  0.41315736  0.84632997    -0.05900
C850        C  0.25147781  0.42222397  0.87260570    -0.05800
C851        C  0.25095385  0.40413417  0.89376953    -0.24000
C852        C  0.25436931  0.37661335  0.88912120     0.18200
C853        C  0.25852067  0.36730628  0.86288314     0.15500
C854        C  0.25887272  0.38555887  0.84170532    -0.19000
C855        C  0.26215164  0.33984322  0.85820600    -0.20800
C856        C  0.26124784  0.32167011  0.87923629    -0.13400
C857        C  0.25680217  0.33057416  0.90543884     0.03300
C858        C  0.25356528  0.35823547  0.91021721    -0.25500
H859        H  0.24860728  0.44334144  0.87684322     0.08400
H860        H  0.24778966  0.41166857  0.91375091     0.12000
H861        H  0.26199983  0.37823264  0.82163929     0.11900
H862        H  0.26557039  0.33238144  0.83824278     0.11700
H863        H  0.26410989  0.30057184  0.87491700     0.12200
H864        H  0.25016767  0.36548267  0.93027050     0.14100
C865        C  0.25279116  0.09224975  0.83482039    -0.05900
C866        C  0.25156775  0.11904783  0.82624814    -0.05800
C867        C  0.25007568  0.14002913  0.84458614    -0.24000
C868        C  0.24999227  0.13468468  0.87189076     0.18200
C869        C  0.25129817  0.10790223  0.88085743     0.15500
C870        C  0.25243382  0.08684734  0.86230033    -0.19000
C871        C  0.25181030  0.10268990  0.90822762    -0.20800
C872        C  0.25123649  0.12384425  0.92652649    -0.13400
C873        C  0.24978322  0.15059994  0.91780202     0.03300
C874        C  0.24898292  0.15576458  0.89033474    -0.25500
H875        H  0.25175167  0.12389328  0.80528697     0.08400
H876        H  0.24920175  0.16047425  0.83739121     0.12000
H877        H  0.25330651  0.06632916  0.86931449     0.11900
H878        H  0.25295462  0.08228055  0.91548461     0.11700
H879        H  0.25207766  0.11921078  0.94752328     0.12200
H880        H  0.24787317  0.17622551  0.88319224     0.14100
C881        C  0.40755955  0.16478887  0.74561955    -0.05900
C882        C  0.38102575  0.17383255  0.74912824    -0.05800
C883        C  0.35955124  0.15577888  0.74863448    -0.24000
C884        C  0.36416350  0.12830252  0.74474432     0.18200
C885        C  0.39066364  0.11901963  0.74076343     0.15500
C886        C  0.41210925  0.13729330  0.74096014    -0.19000
C887        C  0.39534506  0.09151952  0.73726839    -0.20800
C888        C  0.37403447  0.07330710  0.73823583    -0.13400
C889        C  0.34750819  0.08222426  0.74240328     0.03300
C890        C  0.34277523  0.10992602  0.74529886    -0.25500
H891        H  0.37684446  0.19484846  0.75272432     0.08400
H892        H  0.33936455  0.16326330  0.75174119     0.12000
H893        H  0.43238147  0.12997423  0.73793998     0.11900
H894        H  0.41554511  0.08403799  0.73419619     0.11700
H895        H  0.37841190  0.05216365  0.73581625     0.12200
H896        H  0.32253263  0.11719786  0.74856614     0.14100
C897        C  0.42391781  0.34343453  0.74650606    -0.05900
C898        C  0.43336671  0.37005570  0.74605846    -0.05800
C899        C  0.41547320  0.39166715  0.74728720    -0.24000
C900        C  0.38774112  0.38712633  0.74890052     0.18200
C901        C  0.37803683  0.36047484  0.74852594     0.15500
C902        C  0.39606646  0.33889831  0.74713081    -0.19000
C903        C  0.35042272  0.35573504  0.74999360    -0.20800
C904        C  0.33251587  0.37711599  0.75191833    -0.13400
C905        C  0.34170599  0.40385750  0.75223637     0.03300
C906        C  0.36954315  0.40869191  0.75084131    -0.25500
H907        H  0.45468129  0.37425374  0.74524995     0.08400
H908        H  0.42336147  0.41191760  0.74730426     0.12000
H909        H  0.38834386  0.31856712  0.74718609     0.11900
H910        H  0.34262228  0.33544426  0.74967771     0.11700
H911        H  0.31128295  0.37255347  0.75283266     0.12200
H912        H  0.37703074  0.42910325  0.75104393     0.14100
C913        C  0.16457201  0.08740014  0.74378384    -0.05900
C914        C  0.14652049  0.08431895  0.72256309    -0.05800
C915        C  0.12277975  0.09912179  0.72167962    -0.24000
C916        C  0.11646857  0.11694110  0.74229542     0.18200
C917        C  0.13446685  0.12001434  0.76394559     0.15500
C918        C  0.15862578  0.10540673  0.76440791    -0.19000
C919        C  0.12786255  0.13754661  0.78475682    -0.20800
C920        C  0.10446250  0.15292834  0.78338070    -0.13400
C921        C  0.08718917  0.15081945  0.76139894     0.03300
C922        C  0.09278663  0.13220592  0.74128817    -0.25500
H923        H  0.15056316  0.06986815  0.70693296     0.08400
H924        H  0.10919156  0.09635537  0.70506620     0.12000
H925        H  0.17216757  0.10713405  0.78121987     0.11900
H926        H  0.14114479  0.13995543  0.80166773     0.11700
H927        H  0.10026515  0.16727601  0.79903276     0.12200
H928        H  0.07961649  0.13083773  0.72415964     0.14100
C929        C  0.16270723  0.40794243  0.75581712    -0.05900
C930        C  0.13610576  0.41675451  0.75949647    -0.05800
C931        C  0.11483506  0.39870506  0.75888625    -0.24000
C932        C  0.11967420  0.37143125  0.75461579     0.18200
C933        C  0.14621559  0.36217273  0.75071363     0.15500
C934        C  0.16763763  0.38048513  0.75143819    -0.19000
C935        C  0.15078478  0.33477625  0.74622924    -0.20800
C936        C  0.12930132  0.31672239  0.74617809    -0.13400
C937        C  0.10289651  0.32580982  0.75049354     0.03300
C938        C  0.09830035  0.35330164  0.75443076    -0.25500
H939        H  0.13161375  0.43773744  0.76289938     0.08400
H940        H  0.09458203  0.40609943  0.76182715     0.12000
H941        H  0.18798523  0.37341543  0.74834209     0.11900
H942        H  0.17094632  0.32729786  0.74295128     0.11700
H943        H  0.13338745  0.29565386  0.74278269     0.12200
H944        H  0.07808142  0.36067066  0.75771194     0.14100
C945        C  0.34912614  0.24951357  0.58452543    -0.05900
C946        C  0.37429364  0.24007743  0.57564056    -0.05800
C947        C  0.39655537  0.23936705  0.59258689    -0.24000
C948        C  0.39438402  0.24822631  0.61891153     0.18200
C949        C  0.36939037  0.25808531  0.62812502     0.15500
C950        C  0.34691483  0.25854714  0.61099165    -0.19000
C951        C  0.36728500  0.26722726  0.65437446    -0.20800
C952        C  0.38940062  0.26605331  0.67142635    -0.13400
C953        C  0.41426354  0.25568032  0.66274709     0.03300
C954        C  0.41667883  0.24711990  0.63621085    -0.25500
H955        H  0.37682006  0.23290609  0.55546362     0.08400
H956        H  0.41548495  0.23178022  0.58507221     0.12000
H957        H  0.32783795  0.26607316  0.61820928     0.11900
H958        H  0.34844818  0.27509503  0.66182778     0.11700
H959        H  0.38689378  0.27316913  0.69163836     0.12200
H960        H  0.43561882  0.23905305  0.62920413     0.14100
C961        C  0.09795784  0.23650885  0.66524267    -0.05900
C962        C  0.12059797  0.22048644  0.67062189    -0.05800
C963        C  0.14270134  0.22036438  0.65339521    -0.24000
C964        C  0.14286787  0.23680832  0.63080396     0.18200
C965        C  0.12013082  0.25293861  0.62531570     0.15500
C966        C  0.09774982  0.25236795  0.64227896    -0.19000
C967        C  0.12023919  0.26976129  0.60312776    -0.20800
C968        C  0.14240303  0.27037701  0.58624644    -0.13400
C969        C  0.16504321  0.25428491  0.59114409     0.03300
C970        C  0.16528705  0.23757539  0.61365357    -0.25500
H971        H  0.12121091  0.20808281  0.68825281     0.08400
H972        H  0.15982244  0.20778696  0.65799626     0.12000
H973        H  0.08056760  0.26505767  0.63815012     0.11900
H974        H  0.10310386  0.28239765  0.59873773     0.11700
H975        H  0.14177139  0.28339114  0.56905255     0.12200
H976        H  0.18249049  0.22479751  0.61739465     0.14100
C977        C  0.16254662  0.25266719  0.91190086    -0.05900
C978        C  0.14009641  0.26872116  0.91781766    -0.05800
C979        C  0.11780871  0.26900339  0.90105476    -0.24000
C980        C  0.11746783  0.25309413  0.87812280     0.18200
C981        C  0.14033138  0.23756587  0.87144841     0.15500
C982        C  0.16287583  0.23766841  0.88824265    -0.19000
C983        C  0.14005597  0.22191603  0.84830628    -0.20800
C984        C  0.11752732  0.22196134  0.83181302    -0.13400
C985        C  0.09474434  0.23737698  0.83829756     0.03300
C986        C  0.09469536  0.25262350  0.86169856    -0.25500
H987        H  0.13960715  0.28079991  0.93574667     0.08400
H988        H  0.10066063  0.28131399  0.90627823     0.12000
H989        H  0.18012837  0.22528007  0.88349130     0.11900
H990        H  0.15732923  0.20989735  0.84280963     0.11700
H991        H  0.11807562  0.21024300  0.81367031     0.12200
H992        H  0.07739137  0.26489239  0.86656150     0.14100
C993        C  0.41047652  0.24769309  0.83581141    -0.05900
C994        C  0.38512415  0.25670070  0.82709874    -0.05800
C995        C  0.36254093  0.25509113  0.84345489    -0.24000
C996        C  0.36454700  0.24418628  0.86896188     0.18200
C997        C  0.38972882  0.23462911  0.87797296     0.15500
C998        C  0.41259600  0.23659028  0.86145080    -0.19000
C999        C  0.39155560  0.22343936  0.90342818    -0.20800
C1000       C  0.36906481  0.22280627  0.92010394    -0.13400
C1001       C  0.34412758  0.23326418  0.91177017     0.03300
C1002       C  0.34189836  0.24325715  0.88576880    -0.25500
H1003       H  0.38267856  0.26523799  0.80747985     0.08400
H1004       H  0.34346809  0.26248218  0.83612643     0.12000
H1005       H  0.43182499  0.22917155  0.86837432     0.11900
H1006       H  0.41051045  0.21567270  0.91067880     0.11700
H1007       H  0.37136989  0.21463381  0.93989976     0.12200
H1008       H  0.32290766  0.25142453  0.87903591     0.14100
C1009       C  0.40546248  0.41666942  0.50241764    -0.05900
C1010       C  0.37961000  0.42516854  0.49485849    -0.05800
C1011       C  0.35864152  0.40673552  0.49254390    -0.24000
C1012       C  0.36317503  0.37952633  0.49778147     0.18200
C1013       C  0.38898563  0.37088655  0.50571837     0.15500
C1014       C  0.41100455  0.38717445  0.00503565    -0.19000
C1015       C  0.39320799  0.34215230  0.01224396    -0.20800
C1016       C  0.37207083  0.32376815  0.01050366    -0.13400
C1017       C  0.34706873  0.33348153  0.50030832     0.03300
C1018       C  0.34237605  0.36079800  0.49516867    -0.25500
H1019       H  0.37568087  0.44599305  0.49017911     0.08400
H1020       H  0.33898390  0.41371009  0.48640849     0.12000
H1021       H  0.43009450  0.38096453  0.01337276     0.11900
H1022       H  0.41210370  0.33577096  0.02084581     0.11700
H1023       H  0.37511675  0.30364554  0.01798889     0.12200
H1024       H  0.32260256  0.36751149  0.48908265     0.14100
C1025       C  0.33866945  0.15526819  0.50015860    -0.05900
C1026       C  0.32673318  0.12501740  0.00698825    -0.05800
C1027       C  0.34511969  0.10388522  0.00670447    -0.24000
C1028       C  0.37215285  0.10867363  0.00061970     0.18200
C1029       C  0.38489046  0.13872343  0.49908267     0.15500
C1030       C  0.36649883  0.16013050  0.49824257    -0.19000
C1031       C  0.41257921  0.14329053  0.49677770    -0.20800
C1032       C  0.43060981  0.12176519  0.49713202    -0.13400
C1033       C  0.42133628  0.09524177  0.49998890     0.03300
C1034       C  0.39082913  0.08760849  0.00054048    -0.25500
H1035       H  0.30599163  0.12071103  0.01182747     0.08400
H1036       H  0.33820564  0.08382276  0.01130287     0.12000
H1037       H  0.37387371  0.18046342  0.49608530     0.11900
H1038       H  0.42027965  0.16346784  0.49441479     0.11700
H1039       H  0.45183161  0.12592704  0.49493296     0.12200
H1040       H  0.38419173  0.06749358  0.00534781     0.14100
C1041       C  0.16909201  0.34308403  0.49289627    -0.05900
C1042       C  0.17669562  0.36798118  0.99835619    -0.05800
C1043       C  0.15871648  0.38942653  0.99789839    -0.24000
C1044       C  0.13109766  0.38476473  0.99559133     0.18200
C1045       C  0.12265927  0.35843923  0.49482670     0.15500
C1046       C  0.14149191  0.33756933  0.49523939    -0.19000
C1047       C  0.09521500  0.35309060  0.49795143    -0.20800
C1048       C  0.07670686  0.37413546  0.49874923    -0.13400
C1049       C  0.08533380  0.40089276  0.49640116    -0.02300
C1050       C  0.11293926  0.40627043  0.99601162    -0.25500
H1051       H  0.19789809  0.37232650  0.00043041     0.08400
H1052       H  0.16642945  0.40968062  0.99960570     0.12000
H1053       H  0.13463710  0.31713156  0.49798463     0.11900
H1054       H  0.08809996  0.33267336  0.50010479     0.11700
H1055       H  0.05565977  0.36942916  0.50143396     0.12200
H1056       H  0.12053560  0.42655878  0.99795347     0.14100
C1057       C  0.15795828  0.16383484  0.50177794    -0.05900
C1058       C  0.13095860  0.17193163  0.99104644    -0.05800
C1059       C  0.11001205  0.15353032  0.98819411    -0.24000
C1060       C  0.11453995  0.12615597  0.99248549     0.18200
C1061       C  0.14168286  0.11746660  0.50400248     0.15500
C1062       C  0.16253785  0.13637342  0.50676194    -0.19000
C1063       C  0.14612954  0.09018890  0.50926447    -0.20800
C1064       C  0.12527575  0.07151875  0.50648722    -0.13400
C1065       C  0.09948540  0.07968767  0.49834565     0.03300
C1066       C  0.09333507  0.10772287  0.99073476    -0.25500
H1067       H  0.12680142  0.19294986  0.98757329     0.08400
H1068       H  0.09021448  0.16075022  0.98283798     0.12000
H1069       H  0.18230918  0.12966424  0.51282998     0.11900
H1070       H  0.16572055  0.08329491  0.51567820     0.11700
H1071       H  0.12929211  0.05069111  0.51107744     0.12200
H1072       H  0.07332302  0.11480585  0.98597616     0.14100
C1073       C  0.34822550  0.00111992  0.83269788    -0.05900
C1074       C  0.37472766  0.00336660  0.82314608    -0.05800
C1075       C  0.39637673  0.00400935  0.84069118    -0.24000
C1076       C  0.39193005  0.00224887  0.86807166     0.18200
C1077       C  0.36698736  0.50000288  0.87752218     0.15500
C1078       C  0.34537462  0.49899348  0.85984927    -0.19000
C1079       C  0.36260699  0.49670996  0.90470282    -0.20800
C1080       C  0.38410305  0.49768351  0.92228316    -0.13400
C1081       C  0.40893237  0.00057753  0.91333817     0.03300
C1082       C  0.41356377  0.00262413  0.88589930    -0.25500
H1083       H  0.37881245  0.00471843  0.80205246     0.08400
H1084       H  0.41655565  0.00578757  0.83284561     0.12000
H1085       H  0.32528612  0.49542496  0.86734804     0.11900
H1086       H  0.34257087  0.49330861  0.91238085     0.11700
H1087       H  0.38001473  0.49477786  0.94321235     0.12200
H1088       H  0.43388950  0.00444311  0.87841641     0.14100
C1089       C  0.08809127  0.98986670  0.90636675    -0.05900
C1090       C  0.08029101  0.97998491  0.88129290    -0.05800
C1091       C  0.09811428  0.98020019  0.85986868    -0.24000
C1092       C  0.12412079  0.99045256  0.86297006     0.18200
C1093       C  0.13391160  0.49788486  0.88931821     0.15500
C1094       C  0.11600089  0.49787672  0.91098616    -0.19000
C1095       C  0.16040502  0.50674981  0.89245785    -0.20800
C1096       C  0.17807923  0.50666052  0.87086546    -0.13400
C1097       C  0.16821194  0.00116358  0.84448732     0.03300
C1098       C  0.14201795  0.99109075  0.84132128    -0.25500
H1099       H  0.06026265  0.97209507  0.87818910     0.08400
H1100       H  0.09146934  0.97250936  0.84080347     0.12000
H1101       H  0.12265679  0.50505068  0.93026117     0.11900
H1102       H  0.16750469  0.51372603  0.91163623     0.11700
H1103       H  0.19841166  0.51366537  0.87406162     0.12200
H1104       H  0.13568480  0.98338624  0.82214690     0.14100
C1105       C  0.09768545  0.99592419  0.58340639    -0.05900
C1106       C  0.12430104  0.99306472  0.57425115    -0.05800
C1107       C  0.14605276  0.99334393  0.59195783    -0.24000
C1108       C  0.14183179  0.99635511  0.61936884     0.18200
C1109       C  0.11549067  0.49445120  0.62981546     0.15500
C1110       C  0.09370269  0.49566423  0.61183557    -0.19000
C1111       C  0.11125204  0.49649449  0.65728236    -0.20800
C1112       C  0.13293573  0.49588258  0.67501657    -0.13400
C1113       C  0.15921192  0.99866454  0.66504037     0.03300
C1114       C  0.16361754  0.99623941  0.63741369    -0.25500
H1115       H  0.12842490  0.99054576  0.55326562     0.08400
H1116       H  0.16620576  0.99103555  0.58417835     0.12000
H1117       H  0.07351704  0.49833074  0.61943048     0.11900
H1118       H  0.09110992  0.49874913  0.66510417     0.11700
H1119       H  0.12872743  0.49772330  0.69605042     0.12200
H1120       H  0.18389976  0.99399472  0.62993927     0.14100
C1121       C  0.34450336  0.99121853  0.66198427    -0.05900
C1122       C  0.36762687  0.47538493  0.66808889    -0.05800
C1123       C  0.39008367  0.47475084  0.65146449    -0.24000
C1124       C  0.39038799  0.48964434  0.62795309     0.18200
C1125       C  0.36752214  0.00591859  0.62169094     0.15500
C1126       C  0.34444869  0.00565259  0.63802466    -0.19000
C1127       C  0.36797030  0.02089596  0.59821359    -0.20800
C1128       C  0.39065349  0.02061249  0.58191140    -0.13400
C1129       C  0.41350697  0.00541670  0.58862335     0.03300
C1130       C  0.41315182  0.48941946  0.61127468    -0.25500
H1131       H  0.36827500  0.46403856  0.68640664     0.08400
H1132       H  0.40735384  0.46287275  0.65721020     0.12000
H1133       H  0.32688788  0.01724285  0.63253858     0.11900
H1134       H  0.35068693  0.03265979  0.59230172     0.11700
H1135       H  0.39021124  0.03215087  0.56370059     0.12200
H1136       H  0.43035064  0.47704154  0.61619240     0.14100
C1137       C  0.00179750  0.08113953  0.90572397    -0.05900
C1138       C  0.50208627  0.07102239  0.87954124    -0.05800
C1139       C  0.50064037  0.08818936  0.85781374    -0.24000
C1140       C  0.49919268  0.11589853  0.86175858     0.18200
C1141       C  0.99855687  0.12628000  0.88798141     0.15500
C1142       C  0.00017635  0.10890084  0.90979171    -0.19000
C1143       C  0.99683851  0.15393199  0.89198746    -0.20800
C1144       C  0.99571188  0.17116991  0.87029249    -0.13400
C1145       C  0.99632306  0.16120655  0.84399296     0.03300
C1146       C  0.49793849  0.13336171  0.83991949    -0.25500
H1147       H  0.50309896  0.04966946  0.87565459     0.08400
H1148       H  0.50063688  0.07976544  0.83793421     0.12000
H1149       H  0.99999223  0.11698453  0.92982307     0.11900
H1150       H  0.99659714  0.16228159  0.91190218     0.11700
H1151       H  0.99471282  0.19249837  0.87427194     0.12200
H1152       H  0.49831128  0.12530116  0.81988963     0.14100
C1153       C  0.01116002  0.33927390  0.83758425    -0.05900
C1154       C  0.02462148  0.36322376  0.83123567    -0.05800
C1155       C  0.02412938  0.38510726  0.84860017    -0.24000
C1156       C  0.01002736  0.38354512  0.87260177     0.18200
C1157       C  0.49666942  0.35945364  0.87944335     0.15500
C1158       C  0.49745493  0.33741801  0.86196738    -0.19000
C1159       C  0.48310027  0.35773458  0.90376635    -0.20800
C1160       C  0.48270557  0.37965808  0.92112764    -0.13400
C1161       C  0.99562351  0.40380160  0.91432084     0.03300
C1162       C  0.00913386  0.40564299  0.88993535    -0.25500
H1163       H  0.03546861  0.36509497  0.81268181     0.08400
H1164       H  0.03460751  0.40332588  0.84315203     0.12000
H1165       H  0.48711508  0.31902438  0.86713046     0.11900
H1166       H  0.47301777  0.33937726  0.90947454     0.11700
H1167       H  0.47236926  0.37770481  0.93996026     0.12200
H1168       H  0.01959402  0.42398432  0.88480639     0.14100
C1169       C  0.01288173  0.33863437  0.66442859    -0.05900
C1170       C  0.52377540  0.36329394  0.67287003    -0.05800
C1171       C  0.52329488  0.38592037  0.65653549    -0.24000
C1172       C  0.51156213  0.38465492  0.63127107     0.18200
C1173       C  0.00083369  0.35992676  0.62239518     0.15500
C1174       C  0.00150343  0.33709174  0.63891175    -0.19000
C1175       C  0.98903359  0.35861418  0.59722074    -0.20800
C1176       C  0.98846669  0.38122675  0.58089135    -0.13400
C1177       C  0.99961256  0.40597119  0.58915596     0.03300
C1178       C  0.51073534  0.40757457  0.61473659    -0.25500
H1179       H  0.53274949  0.36518184  0.69240606     0.08400
H1180       H  0.53193366  0.40449297  0.66379355     0.12000
H1181       H  0.99251972  0.31844446  0.63222241     0.11900
H1182       H  0.98034030  0.34002488  0.59003552     0.11700
H1183       H  0.97930660  0.37919035  0.56146217     0.12200
H1184       H  0.51949104  0.42628605  0.62150214     0.14100
C1185       C  0.00871400  0.15419099  0.66320656    -0.05900
C1186       C  0.01218236  0.12774273  0.67240674    -0.05800
C1187       C  0.01436418  0.10620936  0.65471242    -0.24000
C1188       C  0.01298420  0.11042883  0.62726845     0.18200
C1189       C  0.51045915  0.13685105  0.61751860     0.15500
C1190       C  0.50853670  0.15859269  0.63550297    -0.19000
C1191       C  0.50886925  0.14093484  0.59000506    -0.20800
C1192       C  0.50943771  0.11908632  0.57244723    -0.13400
C1193       C  0.01156089  0.09257242  0.58193066     0.03300
C1194       C  0.01364469  0.08852883  0.60950737    -0.25500
H1195       H  0.01307008  0.12352150  0.69348150     0.08400
H1196       H  0.01669630  0.08613297  0.66256953     0.12000
H1197       H  0.50603662  0.17877178  0.62793693     0.11900
H1198       H  0.50668962  0.16099370  0.58205409     0.11700
H1199       H  0.50757166  0.12304973  0.55137622     0.12200
H1200       H  0.01531464  0.06832945  0.61723458     0.14100
O1201       O  0.00749492  0.54437256  0.07457994    -0.80800
O1202       O  0.00098202  0.53582933  0.42021789    -0.82300
O1203       O  0.05268181  0.56993690  0.99727303    -0.79300
O1204       O  0.46528378  0.57819135  0.99678991    -0.77700
O1205       O  0.43074944  0.54803713  0.99703559    -0.79500
O1206       O  0.08247066  0.53510243  0.99711647    -0.80500
O1207       O  0.00662143  0.56995558  0.45014812    -0.81800
O1208       O  0.01066708  0.57485223  0.04074438    -0.82100
Eu1209     Eu  0.00687291  0.55186637  0.99758948     2.39200
O1210       O  0.47670401  0.52530417  0.47082833    -0.89600
O1211       O  0.03102909  0.52254669  0.02519421    -0.93200
C1212       C  0.01023188  0.56863527  0.06565921     1.01500
C1213       C  0.00374801  0.56085348  0.42613592     1.01300
C1214       C  0.07674141  0.56031469  0.99717326     1.01300
C1215       C  0.44007817  0.57222383  0.99650255     0.99100
H1216       H  0.04232653  0.53064626  0.45734964     0.28900
O1217       O  0.03096910  0.52053502  0.46916180    -1.02000
H1218       H  0.46778052  0.54007541  0.03677470     0.28900
O1219       O  0.47810310  0.52763963  0.02618572    -1.04500
O1220       O  0.99563727  0.94831410  0.42645467    -0.81700
O1221       O  0.00263086  0.95251109  0.07585722    -0.81300
O1222       O  0.07626038  0.49258631  0.45050936    -0.79700
O1223       O  0.42576808  0.50205680  0.45721080    -0.83100
O1224       O  0.42512134  0.50527349  0.04063254    -0.80900
O1225       O  0.07909051  0.49557070  0.04141222    -0.79600
O1226       O  0.04081469  0.91857760  0.99666270    -0.81100
O1227       O  0.45390070  0.92330827  0.00013310    -0.83000
O1228       O  0.07542042  0.94858969  0.99579190    -0.79700
O1229       O  0.42385864  0.95792044  0.99895479    -0.82400
O1230       O  0.04194217  0.49207824  0.42027062    -0.78100
O1231       O  0.04825938  0.49842975  0.07507017    -0.78200
O1232       O  0.45600800  0.50162729  0.07416935    -0.77800
O1233       O  0.45588046  0.49594213  0.42357174    -0.81300
O1234       O  0.99453411  0.91782037  0.46025403    -0.80700
O1235       O  0.99908552  0.92154666  0.04243421    -0.79100
Eu1236     Eu  0.00019896  0.49377218  0.44497997     2.39800
Eu1237     Eu  0.00260844  0.49870818  0.05460599     2.39600
Eu1238     Eu  0.05646435  0.49353468  0.99820164     2.38400
Eu1239     Eu  0.44891090  0.50203086  0.99933962     2.39900
Eu1240     Eu  0.99858420  0.94359800  0.99993219     2.39800
O1241       O  0.47342957  0.97249283  0.02747002    -0.93500
O1242       O  0.02584984  0.96632958  0.47169837    -0.92400
C1243       C  0.99437977  0.92409295  0.43548310     1.01700
C1244       C  0.00096603  0.92798079  0.06708148     1.00400
C1245       C  0.06704112  0.49261674  0.42631571     0.99800
C1246       C  0.43180171  0.49939166  0.43239972     1.01800
C1247       C  0.43153532  0.50407691  0.06528475     1.00700
C1248       C  0.07272158  0.49766038  0.06619668     0.99600
C1249       C  0.06598376  0.92449441  0.99530886     0.99600
C1250       C  0.42981967  0.93268986  0.99910650     1.02200
H1251       H  0.03913253  0.95745601  0.03674308     0.29600
O1252       O  0.02809973  0.96920711  0.02615870    -1.05700
H1253       H  0.45856018  0.96036986  0.46376250     0.31700
O1254       O  0.47113272  0.97091108  0.47401451    -1.08200
O1255       O  0.00476128  0.70086351  0.17530063    -0.80800
O1256       O  0.99793281  0.70777712  0.32849912    -0.82300
O1257       O  0.04431046  0.66996259  0.25551821    -0.79300
O1258       O  0.45390392  0.67539426  0.25211095    -0.77700
O1259       O  0.42372815  0.70977848  0.24830857    -0.79500
O1260       O  0.07715058  0.70201460  0.25593038    -0.80500
O1261       O  0.99880450  0.67387917  0.29771722    -0.81800
O1262       O  0.00160738  0.67056147  0.20934411    -0.82100
Eu1263     Eu  0.00013413  0.69378982  0.25227458     2.39200
O1264       O  0.47311585  0.72379745  0.27656111    -0.89600
O1265       O  0.02891676  0.71871792  0.22427159    -0.93200
C1266       C  0.00362875  0.67657764  0.18447583     1.01500
C1267       C  0.99836575  0.68270994  0.32201171     1.01300
C1268       C  0.06919947  0.67751253  0.25704253     1.01300
C1269       C  0.42969438  0.68473578  0.25053191     0.99100
H1270       H  0.03691664  0.70988254  0.29129241     0.28900
O1271       O  0.02652412  0.72114108  0.27953754    -1.02000
H1272       H  0.46423698  0.71082440  0.21133798     0.28900
O1273       O  0.47579794  0.72175580  0.22238161    -1.04500
O1274       O  0.99997041  0.79563936  0.32472984    -0.81700
O1275       O  0.00763081  0.79183790  0.17271248    -0.81300
O1276       O  0.07599947  0.74384683  0.29614667    -0.79700
O1277       O  0.42302195  0.75138620  0.28822669    -0.83100
O1278       O  0.42918430  0.75378968  0.20354542    -0.80900
O1279       O  0.08052600  0.74559156  0.21044305    -0.79600
O1280       O  0.05058491  0.82195162  0.25180936    -0.81100
O1281       O  0.46347706  0.82743772  0.24506869    -0.83000
O1282       O  0.08033261  0.78722175  0.25402593    -0.79700
O1283       O  0.42941886  0.79680867  0.24550834    -0.82400
O1284       O  0.04386782  0.74849188  0.32832583    -0.78100
O1285       O  0.05097073  0.74771385  0.17569746    -0.78200
O1286       O  0.46088675  0.75070976  0.17091255    -0.77800
O1287       O  0.45283121  0.74921155  0.32269889    -0.81300
O1288       O  0.00340840  0.82617235  0.29106290    -0.80700
O1289       O  0.00881841  0.82338635  0.20581766    -0.79100
Eu1290     Eu  0.99971038  0.75055835  0.30490866     2.39800
Eu1291     Eu  0.00471315  0.74691864  0.19463050     2.39600
Eu1292     Eu  0.05550944  0.74551972  0.25222283     2.38400
Eu1293     Eu  0.44913028  0.75159191  0.24739819     2.39900
Eu1294     Eu  0.00534477  0.80229384  0.24892022     2.39800
O1295       O  0.47839542  0.77623241  0.22057465    -0.93500
O1296       O  0.02970120  0.77505917  0.27810708    -0.92400
C1297       C  0.00150085  0.81984776  0.31577857     1.01700
C1298       C  0.00919744  0.81642648  0.18119782     1.00400
C1299       C  0.06848569  0.74508100  0.32060966     0.99800
C1300       C  0.42862145  0.74952209  0.31313136     1.01800
C1301       C  0.43629481  0.75344029  0.17899666     1.00700
C1302       C  0.07509806  0.74731609  0.18544710     0.99600
C1303       C  0.07461443  0.81233920  0.25346473     0.99600
C1304       C  0.43841058  0.82107275  0.24462484     1.02200
H1305       H  0.04406562  0.78393883  0.21283128     0.29600
O1306       O  0.03167748  0.77329941  0.22309859    -1.05700
H1307       H  0.46363494  0.79031452  0.28573603     0.31700
O1308       O  0.47513643  0.77834206  0.27577865    -1.08200
O1309       O  0.32854959  0.99385616  0.20577460    -0.80800
O1310       O  0.17682732  0.99681208  0.20759146    -0.82300
O1311       O  0.25183602  0.94820128  0.17706319    -0.79300
O1312       O  0.24874932  0.53737197  0.17076604    -0.77700
O1313       O  0.25176084  0.57174980  0.20089550    -0.79500
O1314       O  0.24959766  0.91787871  0.21105860    -0.80500
O1315       O  0.20729055  0.99370975  0.17373804    -0.81800
O1316       O  0.29686398  0.99452229  0.17290744    -0.82100
Eu1317     Eu  0.25195087  0.99416616  0.19531777     2.39200
O1318       O  0.22591132  0.52379356  0.22183267    -0.89600
O1319       O  0.27791859  0.96713078  0.22372579    -0.93200
C1320       C  0.32155579  0.99410120  0.18118561     1.01500
C1321       C  0.18296731  0.99505547  0.18268386     1.01300
C1322       C  0.25071960  0.92398093  0.18612962     1.01300
C1323       C  0.24947317  0.56255706  0.17694763     0.99100
H1324       H  0.21235298  0.95768658  0.21445329     0.28900
O1325       O  0.22420788  0.96916484  0.22452859    -1.02000
H1326       H  0.29099186  0.53301490  0.20772379     0.28900
O1327       O  0.27975988  0.52280138  0.21959090    -1.04500
O1328       O  0.17772186  0.00010977  0.29584841    -0.81700
O1329       O  0.33042867  0.99629920  0.28998787    -0.81300
O1330       O  0.20560620  0.92213802  0.25638642    -0.79700
O1331       O  0.20924703  0.57502808  0.24715037    -0.83100
O1332       O  0.29988154  0.57248442  0.24424482    -0.80900
O1333       O  0.29233960  0.91870256  0.25339321    -0.79600
O1334       O  0.25348155  0.95810017  0.32895765    -0.81100
O1335       O  0.25623690  0.54776559  0.32183300    -0.83000
O1336       O  0.25084443  0.92373353  0.29875486    -0.79700
O1337       O  0.25624440  0.57821276  0.28787729    -0.82400
O1338       O  0.17502378  0.95617146  0.25491486    -0.78100
O1339       O  0.32599041  0.94962184  0.24960194    -0.78200
O1340       O  0.33066590  0.53844264  0.24571228    -0.77800
O1341       O  0.17730373  0.54213017  0.25016365    -0.81300
O1342       O  0.21136945  0.00191434  0.32670548    -0.80700
O1343       O  0.30015032  0.00025852  0.32382024    -0.79100
Eu1344     Eu  0.19907592  0.99848182  0.25133603     2.39800
Eu1345     Eu  0.30622838  0.99526228  0.24842605     2.39600
Eu1346     Eu  0.25026890  0.94282632  0.25333710     2.38400
Eu1347     Eu  0.25421165  0.55272586  0.24596753     2.39900
Eu1348     Eu  0.25473197  0.00063211  0.30406549     2.39800
O1349       O  0.28182726  0.52611922  0.27343407    -0.93500
O1350       O  0.22557783  0.97254944  0.27978301    -0.92400
C1351       C  0.18634470  0.00105886  0.32011706     1.01700
C1352       C  0.32436097  0.99834205  0.31470529     1.00400
C1353       C  0.18133285  0.93120887  0.25665885     0.99800
C1354       C  0.18458205  0.56676200  0.24838305     1.01800
C1355       C  0.32428849  0.56353186  0.24476953     1.00700
C1356       C  0.31721678  0.92525821  0.25160382     0.99600
C1357       C  0.25198596  0.93294048  0.32280751     0.99600
C1358       C  0.25631312  0.57204847  0.31281968     1.02200
H1359       H  0.29077117  0.95955586  0.28916351     0.29600
O1360       O  0.27955618  0.97047790  0.27789187    -1.05700
H1361       H  0.21719625  0.53961585  0.28664441     0.31700
O1362       O  0.22794949  0.52772259  0.27587799    -1.08200
O1363       O  0.20464573  0.67447215  0.50444641    -0.80800
O1364       O  0.21432320  0.82788393  0.49486087    -0.82300
O1365       O  0.17693383  0.75483710  0.04401799    -0.79300
O1366       O  0.17596229  0.75227142  0.45823128    -0.77700
O1367       O  0.20615363  0.74528868  0.42468307    -0.79500
O1368       O  0.20897679  0.75500431  0.07660068    -0.80500
O1369       O  0.18043108  0.79728808  0.49848430    -0.81800
O1370       O  0.17447350  0.70863126  0.49904351    -0.82100
Eu1371     Eu  0.19947619  0.75150227  0.50026236     2.39200
O1372       O  0.22712626  0.77546217  0.47093118    -0.89600
O1373       O  0.22407365  0.72348269  0.02999873    -0.93200
C1374       C  0.18054569  0.68348711  0.50121104     1.01500
C1375       C  0.18929627  0.82157144  0.49634659     1.01300
C1376       C  0.18421988  0.75616443  0.06857744     1.01300
C1377       C  0.18193166  0.74905626  0.43359972     0.99100
H1378       H  0.21701264  0.79059755  0.03622111     0.28900
O1379       O  0.22749523  0.77808049  0.02585944    -1.02000
H1380       H  0.21264502  0.70981650  0.46465427     0.28900
O1381       O  0.22460332  0.72093488  0.47500536    -1.04500
O1382       O  0.30074046  0.82248887  0.49735730    -0.81700
O1383       O  0.29337213  0.67038240  0.50258193    -0.81300
O1384       O  0.25711553  0.79657767  0.07314566    -0.79700
O1385       O  0.25564939  0.78700088  0.42070121    -0.83100
O1386       O  0.25006025  0.69892701  0.42695629    -0.80900
O1387       O  0.25287091  0.70939645  0.07955071    -0.79600
O1388       O  0.32976712  0.74540436  0.03982899    -0.81100
O1389       O  0.32849629  0.74278419  0.45647150    -0.83000
O1390       O  0.30006105  0.75103907  0.07400491    -0.79700
O1391       O  0.29685588  0.74091704  0.42355204    -0.82400
O1392       O  0.25768680  0.82662093  0.03886794    -0.78100
O1393       O  0.24940685  0.67484735  0.04968900    -0.78200
O1394       O  0.24789568  0.66880043  0.46115230    -0.77800
O1395       O  0.25783002  0.82115947  0.45119001    -0.81300
O1396       O  0.33130661  0.78845993  0.49994237    -0.80700
O1397       O  0.32754094  0.70091090  0.50083620    -0.79100
Eu1398     Eu  0.25605673  0.80246408  0.49663371     2.39800
Eu1399     Eu  0.25006659  0.69390201  0.50406580     2.39600
Eu1400     Eu  0.25377685  0.75125259  0.05439954     2.38400
Eu1401     Eu  0.25221133  0.74464821  0.44538798     2.39900
Eu1402     Eu  0.30691239  0.74565637  0.50002325     2.39800
O1403       O  0.27784955  0.71832738  0.47500526    -0.93500
O1404       O  0.28115110  0.77429110  0.02405930    -0.92400
C1405       C  0.32493626  0.81353397  0.49908312     1.01700
C1406       C  0.31851112  0.67664483  0.50140953     1.00400
C1407       C  0.25800400  0.82069278  0.06391903     0.99800
C1408       C  0.25753685  0.81205231  0.42708148     1.01800
C1409       C  0.24850108  0.67476666  0.43605829     1.00700
C1410       C  0.25115023  0.68426294  0.07364439     0.99600
C1411       C  0.32421892  0.74844336  0.06457995     0.99600
C1412       C  0.32150702  0.74105517  0.43183013     1.02200
H1413       H  0.28964553  0.70973365  0.03950612     0.29600
O1414       O  0.27854862  0.72072266  0.02818422    -1.05700
H1415       H  0.29325757  0.78209175  0.45940466     0.31700
O1416       O  0.28135824  0.77218217  0.47088646    -1.08200
C1417       C  0.25149106  0.66493084  0.09599832    -0.05900
C1418       C  0.26029334  0.67299287  0.12140611    -0.05800
C1419       C  0.26141313  0.65465975  0.14233655    -0.24000
C1420       C  0.25360712  0.62793581  0.13833283     0.18200
C1421       C  0.24432503  0.61971099  0.11304266     0.15500
C1422       C  0.24335726  0.63820279  0.09207714    -0.19000
C1423       C  0.23639231  0.59303250  0.10906066    -0.20800
C1424       C  0.23806956  0.57451896  0.12979986    -0.13400
C1425       C  0.24753736  0.58234873  0.15501624     0.03300
C1426       C  0.25509481  0.60926646  0.15913276    -0.25500
H1427       H  0.26672980  0.69342674  0.12505349     0.08400
H1428       H  0.26854839  0.66134755  0.16160240     0.12000
H1429       H  0.23629670  0.63173811  0.07270572     0.11900
H1430       H  0.22904814  0.58642948  0.08984536     0.11700
H1431       H  0.23182013  0.55404192  0.12609317     0.12200
H1432       H  0.26247272  0.61565295  0.17841453     0.14100
C1433       C  0.25097094  0.90163921  0.16647476    -0.05900
C1434       C  0.24708142  0.87495252  0.17467665    -0.05800
C1435       C  0.24800668  0.85387599  0.15629926    -0.24000
C1436       C  0.25299679  0.85900236  0.12935643     0.18200
C1437       C  0.25687250  0.88566561  0.12081760     0.15500
C1438       C  0.25564375  0.90678055  0.13933750    -0.19000
C1439       C  0.26205557  0.89074803  0.09389554    -0.20800
C1440       C  0.26297526  0.86965074  0.07550297    -0.13400
C1441       C  0.25869400  0.84302083  0.08363917     0.03300
C1442       C  0.25402563  0.83791126  0.11080692    -0.25500
H1443       H  0.24334751  0.87029144  0.19535423     0.08400
H1444       H  0.24492876  0.83353794  0.16319296     0.12000
H1445       H  0.25869587  0.92717911  0.13259842     0.11900
H1446       H  0.26525699  0.91107293  0.08702224     0.11700
H1447       H  0.26682308  0.87424858  0.05483581     0.12200
H1448       H  0.25069538  0.81755355  0.11754108     0.14100
C1449       C  0.25140532  0.91330350  0.34495550    -0.05900
C1450       C  0.23970860  0.92033581  0.36943555    -0.05800
C1451       C  0.23879711  0.90197249  0.39037018    -0.24000
C1452       C  0.24987765  0.87628914  0.38738432     0.18200
C1453       C  0.26187835  0.86897235  0.36295349     0.15500
C1454       C  0.26241160  0.88745173  0.34184435    -0.19000
C1455       C  0.27296825  0.84324150  0.36004772    -0.20800
C1456       C  0.27159484  0.82475738  0.38090113    -0.13400
C1457       C  0.25947542  0.83178395  0.40518800     0.03300
C1458       C  0.24896343  0.85776804  0.40836752    -0.25500
H1459       H  0.23088487  0.93999736  0.37226927     0.08400
H1460       H  0.22939160  0.90786467  0.40890574     0.12000
H1461       H  0.27161777  0.88183490  0.32311679     0.11900
H1462       H  0.28247553  0.83732667  0.34157211     0.11700
H1463       H  0.28016146  0.80497449  0.37809752     0.12200
H1464       H  0.23953236  0.86338346  0.42698812     0.14100
C1465       C  0.25587793  0.59433885  0.33259975    -0.05900
C1466       C  0.26095725  0.62095489  0.32481714    -0.05800
C1467       C  0.25990178  0.64193593  0.34336453    -0.24000
C1468       C  0.25377310  0.63678119  0.37010811     0.18200
C1469       C  0.24869559  0.61018891  0.37820930     0.15500
C1470       C  0.24974704  0.58920298  0.35946679    -0.19000
C1471       C  0.24283842  0.60501143  0.40499594    -0.20800
C1472       C  0.24252749  0.62589577  0.42371970    -0.13400
C1473       C  0.24777018  0.65250896  0.41604036     0.03300
C1474       C  0.25300766  0.65772184  0.38893780    -0.25500
H1475       H  0.26582960  0.62560098  0.30436602     0.08400
H1476       H  0.26398833  0.66220600  0.33679743     0.12000
H1477       H  0.24561614  0.56887380  0.36584153     0.11900
H1478       H  0.23880290  0.58472507  0.41154719     0.11700
H1479       H  0.23827337  0.62115066  0.44427308     0.12200
H1480       H  0.25708537  0.67803471  0.38249081     0.14100
C1481       C  0.40707394  0.66542602  0.25120157    -0.05900
C1482       C  0.38091686  0.67404989  0.25758126    -0.05800
C1483       C  0.35949854  0.65588266  0.25787453    -0.24000
C1484       C  0.36375351  0.62880095  0.25148433     0.18200
C1485       C  0.38996761  0.61996698  0.24517560     0.15500
C1486       C  0.41140605  0.63823778  0.24521074    -0.19000
C1487       C  0.39433669  0.59298416  0.23873520    -0.20800
C1488       C  0.37297434  0.57484570  0.23848077    -0.13400
C1489       C  0.34670007  0.58327424  0.24458937     0.03300
C1490       C  0.34228617  0.61042789  0.25113708    -0.25500
H1491       H  0.37700956  0.69485735  0.26250142     0.08400
H1492       H  0.33959378  0.66305305  0.26291012     0.12000
H1493       H  0.43140289  0.63133184  0.24012914     0.11900
H1494       H  0.41430346  0.58589063  0.23382815     0.11700
H1495       H  0.37706726  0.55413976  0.23333677     0.12200
H1496       H  0.32224301  0.61722826  0.25616461     0.14100
C1497       C  0.41866284  0.84317094  0.24355172    -0.05900
C1498       C  0.42668119  0.86904518  0.23582538    -0.05800
C1499       C  0.40832857  0.89017901  0.23560734    -0.24000
C1500       C  0.38171145  0.88590446  0.24340695     0.18200
C1501       C  0.37339054  0.85997791  0.25119874     0.15500
C1502       C  0.39183799  0.83875440  0.25102632    -0.19000
C1503       C  0.34682950  0.85578107  0.25926188    -0.20800
C1504       C  0.32867762  0.87708223  0.25953798    -0.13400
C1505       C  0.33676075  0.90298496  0.25176187     0.03300
C1506       C  0.36336520  0.90719657  0.24368266    -0.25500
H1507       H  0.44719755  0.87297981  0.22988785     0.08400
H1508       H  0.41501535  0.90991795  0.22955454     0.12000
H1509       H  0.38542446  0.81895911  0.25723402     0.11900
H1510       H  0.34011322  0.83607718  0.26541164     0.11700
H1511       H  0.30828657  0.87323772  0.26596203     0.12200
H1512       H  0.36978816  0.92697719  0.23745425     0.14100
C1513       C  0.16229166  0.58609235  0.24665280    -0.05900
C1514       C  0.14172676  0.58099811  0.22819787    -0.05800
C1515       C  0.11884417  0.59707999  0.22729538    -0.24000
C1516       C  0.11589682  0.61851700  0.24503698     0.18200
C1517       C  0.13640133  0.62375269  0.26394219     0.15500
C1518       C  0.15956572  0.60747766  0.26466461    -0.19000
C1519       C  0.13336729  0.64530789  0.28156885    -0.20800
C1520       C  0.11085229  0.66195208  0.27975591    -0.13400
C1521       C  0.09069066  0.65730636  0.26072458     0.03300
C1522       C  0.09304054  0.63512021  0.24375291    -0.25500
H1523       H  0.14337030  0.56431226  0.21443738     0.08400
H1524       H  0.10343341  0.59272032  0.21270120     0.12000
H1525       H  0.17506643  0.61104870  0.27940963     0.11900
H1526       H  0.14860705  0.64963638  0.29636518     0.11700
H1527       H  0.10916688  0.67867244  0.29316434     0.12200
H1528       H  0.07775160  0.63153601  0.22881057     0.14100
C1529       C  0.15894959  0.91190553  0.25887354    -0.05900
C1530       C  0.13286950  0.92114667  0.26460406    -0.05800
C1531       C  0.11125217  0.90342609  0.26531890    -0.24000
C1532       C  0.11527067  0.87612716  0.26025271     0.18200
C1533       C  0.14147928  0.86648128  0.25508332     0.15500
C1534       C  0.16316378  0.88438348  0.25454622    -0.19000
C1535       C  0.14549738  0.83915234  0.25011101    -0.20800
C1536       C  0.12371872  0.82161533  0.24986629    -0.13400
C1537       C  0.09749005  0.83108742  0.25451591     0.03300
C1538       C  0.09345564  0.85840134  0.25993980    -0.25500
H1539       H  0.12906944  0.94220683  0.26836073     0.08400
H1540       H  0.09134847  0.91113773  0.26950616     0.12000
H1541       H  0.18314136  0.87696550  0.25013228     0.11900
H1542       H  0.16542329  0.83137778  0.24614601     0.11700
H1543       H  0.12743455  0.80063118  0.24561046     0.12200
H1544       H  0.07339147  0.86589727  0.26381437     0.14100
C1545       C  0.34786589  0.74900874  0.08267812    -0.05900
C1546       C  0.37348895  0.74209947  0.07272748    -0.05800
C1547       C  0.39621048  0.74270700  0.08899413    -0.24000
C1548       C  0.39397067  0.75020543  0.11569385     0.18200
C1549       C  0.36848392  0.75768547  0.12580492     0.15500
C1550       C  0.34563481  0.75702295  0.10932787    -0.19000
C1551       C  0.36616041  0.76538911  0.15238809    -0.20800
C1552       C  0.38849592  0.76473526  0.16904070    -0.13400
C1553       C  0.41386665  0.75635133  0.15963581     0.03300
C1554       C  0.41658965  0.74973460  0.13259939    -0.25500
H1555       H  0.37609279  0.73596042  0.05222763     0.08400
H1556       H  0.41548107  0.73702085  0.08072393     0.12000
H1557       H  0.32621429  0.76273271  0.11725251     0.11900
H1558       H  0.34693371  0.77147171  0.16048212     0.11700
H1559       H  0.38564942  0.77046802  0.18962368     0.12200
H1560       H  0.43592927  0.74339245  0.12495882     0.14100
C1561       C  0.09852700  0.74956241  0.16715661    -0.05900
C1562       C  0.12459776  0.74375286  0.17647357    -0.05800
C1563       C  0.14684370  0.74524659  0.15959616    -0.24000
C1564       C  0.14365354  0.75276765  0.13298535     0.18200
C1565       C  0.11781718  0.75999286  0.12370640     0.15500
C1566       C  0.09544401  0.75831178  0.14076642    -0.19000
C1567       C  0.11469262  0.76815022  0.09729656    -0.20800
C1568       C  0.13652096  0.76762748  0.07986877    -0.13400
C1569       C  0.16212956  0.75912928  0.08840034     0.03300
C1570       C  0.16567686  0.75246275  0.11534101    -0.25500
H1571       H  0.12783752  0.73750917  0.19681978     0.08400
H1572       H  0.16649413  0.74004231  0.16727035     0.12000
H1573       H  0.07567332  0.76359863  0.13342540     0.11900
H1574       H  0.09519967  0.77428258  0.08989846     0.11700
H1575       H  0.13316412  0.77349079  0.05942596     0.12200
H1576       H  0.18524395  0.74608173  0.12234039     0.14100
C1577       C  0.15866194  0.75020847  0.41510906    -0.05900
C1578       C  0.13648461  0.76644346  0.42186811    -0.05800
C1579       C  0.11354838  0.76726503  0.40590031    -0.24000
C1580       C  0.11230472  0.75216327  0.38247684     0.18200
C1581       C  0.13438751  0.73562234  0.37548094     0.15500
C1582       C  0.15728590  0.73445121  0.39197630    -0.19000
C1583       C  0.13371991  0.72155738  0.35143638    -0.20800
C1584       C  0.11231757  0.72512906  0.33390918    -0.13400
C1585       C  0.09011375  0.74123998  0.34059437     0.03300
C1586       C  0.08990621  0.75423185  0.36537935    -0.25500
H1587       H  0.13693716  0.77878242  0.43962335     0.08400
H1588       H  0.09702738  0.78019996  0.41160163     0.12000
H1589       H  0.17399782  0.72153706  0.38674598     0.11900
H1590       H  0.15037724  0.70888580  0.34553690     0.11700
H1591       H  0.11343875  0.71573965  0.31467068     0.12200
H1592       H  0.07314611  0.76706222  0.37065092     0.14100
C1593       C  0.40544373  0.74707941  0.33170182    -0.05900
C1594       C  0.37883013  0.74847230  0.32211464    -0.05800
C1595       C  0.35693760  0.74654550  0.33944802    -0.24000
C1596       C  0.36110289  0.74305386  0.36677141     0.18200
C1597       C  0.38766603  0.74064132  0.37645779     0.15500
C1598       C  0.40956788  0.74266732  0.35896795    -0.19000
C1599       C  0.39198836  0.73669796  0.40362028    -0.20800
C1600       C  0.37037795  0.73620672  0.42121069    -0.13400
C1601       C  0.34379949  0.73956066  0.41213781     0.03300
C1602       C  0.33928907  0.74245993  0.38464033    -0.25500
H1603       H  0.37482831  0.75134585  0.30115766     0.08400
H1604       H  0.33676707  0.74811541  0.33150529     0.12000
H1605       H  0.42982541  0.74102350  0.36668774     0.11900
H1606       H  0.41216935  0.73446713  0.41137731     0.11700
H1607       H  0.37465370  0.73354841  0.44214120     0.12200
H1608       H  0.31900089  0.74494913  0.37722796     0.14100
C1609       C  0.40749635  0.91320957  0.99747130    -0.05900
C1610       C  0.38220871  0.92142868  0.98812657    -0.05800
C1611       C  0.36097123  0.90326377  0.98642481    -0.24000
C1612       C  0.36455311  0.87655351  0.99420601     0.18200
C1613       C  0.38991689  0.86797581  0.00353818     0.15500
C1614       C  0.40889399  0.89038939  0.50698813    -0.19000
C1615       C  0.39321483  0.84453824  0.51082252    -0.20800
C1616       C  0.37268617  0.82567710  0.50862391    -0.13400
C1617       C  0.34678504  0.83145875  0.00045612     0.03300
C1618       C  0.34316624  0.85830693  0.99279903    -0.25500
H1619       H  0.37885484  0.94194003  0.98191706     0.08400
H1620       H  0.34170261  0.91015129  0.97911821     0.12000
H1621       H  0.42866267  0.88394139  0.51336503     0.11900
H1622       H  0.41296791  0.83802644  0.51715180     0.11700
H1623       H  0.37703850  0.80499454  0.51352413     0.12200
H1624       H  0.32381311  0.86496027  0.98545516     0.14100
C1625       C  0.33697062  0.65306178  0.00158233    -0.05900
C1626       C  0.32923291  0.62755663  0.50221052    -0.05800
C1627       C  0.34739519  0.60626613  0.50157697    -0.24000
C1628       C  0.37496345  0.61115192  0.49919994     0.18200
C1629       C  0.38288738  0.63705214  0.99534360     0.15500
C1630       C  0.36404178  0.65799084  0.99512597    -0.19000
C1631       C  0.40987217  0.64182944  0.98895497    -0.20800
C1632       C  0.42847895  0.62080209  0.98925159    -0.13400
C1633       C  0.42041437  0.59459047  0.99585064     0.03300
C1634       C  0.39323494  0.58973653  0.49868163    -0.25500
H1635       H  0.30806111  0.62299449  0.50404792     0.08400
H1636       H  0.33984274  0.58593625  0.50295144     0.12000
H1637       H  0.37046554  0.67804291  0.98980246     0.11900
H1638       H  0.41658851  0.66180832  0.98374724     0.11700
H1639       H  0.44917073  0.62505442  0.98417770     0.12200
H1640       H  0.38576704  0.56938839  0.50031231     0.14100
C1641       C  0.16726412  0.84136666  0.99613089    -0.05900
C1642       C  0.17793872  0.87064982  0.49439074    -0.05800
C1643       C  0.15930048  0.89157636  0.49509618    -0.24000
C1644       C  0.13181372  0.88602930  0.49740390     0.18200
C1645       C  0.12176114  0.85872442  0.99053957     0.15500
C1646       C  0.13993079  0.83712708  0.99028058    -0.19000
C1647       C  0.09449718  0.85470475  0.98483993    -0.20800
C1648       C  0.07644235  0.87613751  0.98615379    -0.13400
C1649       C  0.08532759  0.90204791  0.99299894    -0.02300
C1650       C  0.11296882  0.90689429  0.49785991    -0.25500
H1651       H  0.19903934  0.87559748  0.49267591     0.08400
H1652       H  0.16638500  0.91208664  0.49381792     0.12000
H1653       H  0.13281488  0.81713664  0.98548787     0.11900
H1654       H  0.08706954  0.83493427  0.97969040     0.11700
H1655       H  0.05545889  0.87237206  0.98187767     0.12200
H1656       H  0.11995777  0.92743553  0.49650865     0.14100
C1657       C  0.15753173  0.66316506  0.99922677    -0.05900
C1658       C  0.13458502  0.66985997  0.48562169    -0.05800
C1659       C  0.11421765  0.65076481  0.48253465    -0.24000
C1660       C  0.11722654  0.62488243  0.49298648     0.18200
C1661       C  0.14170222  0.61687338  0.00067657     0.15500
C1662       C  0.16251377  0.63565451  0.00307506    -0.19000
C1663       C  0.14659041  0.58951081  0.00480711    -0.20800
C1664       C  0.12558276  0.57102649  0.00314924    -0.13400
C1665       C  0.09929105  0.57961525  0.99745025     0.03300
C1666       C  0.09665541  0.60573663  0.49022046    -0.25500
H1667       H  0.13175627  0.68958736  0.47710655     0.08400
H1668       H  0.09607850  0.65626080  0.47196056     0.12000
H1669       H  0.18252683  0.62880988  0.00814963     0.11900
H1670       H  0.16658930  0.58244414  0.00960739     0.11700
H1671       H  0.12986318  0.55006835  0.00685744     0.12200
H1672       H  0.07833922  0.61108218  0.47985360     0.14100
C1673       C  0.34823649  0.49795399  0.33227203    -0.05900
C1674       C  0.37460563  0.49393793  0.32287307    -0.05800
C1675       C  0.39633295  0.49362162  0.34040762    -0.24000
C1676       C  0.39212723  0.49722140  0.36770156     0.18200
C1677       C  0.36446754  0.00262019  0.37847097     0.15500
C1678       C  0.34276162  0.00236127  0.36079249    -0.19000
C1679       C  0.36009992  0.00637272  0.40565639    -0.20800
C1680       C  0.38165258  0.00610323  0.42329742    -0.13400
C1681       C  0.40932514  0.50019413  0.41304714     0.03300
C1682       C  0.41380493  0.49694943  0.38558827    -0.25500
H1683       H  0.37854964  0.49106360  0.30189069     0.08400
H1684       H  0.41638532  0.49055677  0.33261719     0.12000
H1685       H  0.32255954  0.00522632  0.36829548     0.11900
H1686       H  0.33997978  0.00928854  0.41332776     0.11700
H1687       H  0.37751105  0.00876806  0.44425824     0.12200
H1688       H  0.43402117  0.49403849  0.37814006     0.14100
C1689       C  0.08613515  0.49436905  0.40357991    -0.05900
C1690       C  0.07646014  0.49878979  0.37755046    -0.05800
C1691       C  0.09411959  0.50147172  0.35610202    -0.24000
C1692       C  0.12190591  0.49972096  0.36009820     0.18200
C1693       C  0.13038611  0.99569576  0.38538158     0.15500
C1694       C  0.11251212  0.99290524  0.40681289    -0.19000
C1695       C  0.15808148  0.99572370  0.38985729    -0.20800
C1696       C  0.17591523  0.99806279  0.36866022    -0.13400
C1697       C  0.16784021  0.50009228  0.34287192     0.03300
C1698       C  0.13993581  0.50215233  0.33863583    -0.25500
H1699       H  0.05512985  0.50047758  0.37368874     0.08400
H1700       H  0.08602147  0.50492950  0.33640728     0.12000
H1701       H  0.12036596  0.99092972  0.42680450     0.11900
H1702       H  0.16601967  0.99366882  0.40980438     0.11700
H1703       H  0.19720215  0.99755447  0.37301642     0.12200
H1704       H  0.13225233  0.50545521  0.31874655     0.14100
C1705       C  0.09553708  0.49961883  0.08535511    -0.05900
C1706       C  0.12161214  0.50523130  0.07593760    -0.05800
C1707       C  0.14355902  0.50630908  0.09324881    -0.24000
C1708       C  0.14007551  0.50162672  0.12044705     0.18200
C1709       C  0.11545091  0.99385811  0.12846633     0.15500
C1710       C  0.09321399  0.99364732  0.11108500    -0.19000
C1711       C  0.11183394  0.99019478  0.15578737    -0.20800
C1712       C  0.13381699  0.99049769  0.17302795    -0.13400
C1713       C  0.15868424  0.49661862  0.16515442     0.03300
C1714       C  0.16226382  0.50160817  0.13786247    -0.25500
H1715       H  0.12516571  0.50876381  0.05500730     0.08400
H1716       H  0.16332469  0.51048029  0.08527413     0.12000
H1717       H  0.07321356  0.99055832  0.11897751     0.11900
H1718       H  0.09192826  0.98711824  0.16389392     0.11700
H1719       H  0.13010332  0.98756972  0.19401954     0.12200
H1720       H  0.18221525  0.50549532  0.13017676     0.14100
C1721       C  0.34268380  0.49240397  0.16013632    -0.05900
C1722       C  0.36895162  0.98296312  0.16981192    -0.05800
C1723       C  0.39114257  0.98343624  0.15297496    -0.24000
C1724       C  0.38914485  0.99492342  0.12776785     0.18200
C1725       C  0.36286349  0.50380110  0.11747229     0.15500
C1726       C  0.34036981  0.50323745  0.13447817    -0.19000
C1727       C  0.36093968  0.51461818  0.09191226    -0.20800
C1728       C  0.38343089  0.51511092  0.07531810    -0.13400
C1729       C  0.40848552  0.50505391  0.08397300     0.03300
C1730       C  0.41150807  0.99512705  0.11071132    -0.25500
H1731       H  0.37129171  0.97390258  0.18921597     0.08400
H1732       H  0.40990081  0.97477080  0.15970706     0.12000
H1733       H  0.32140745  0.51169935  0.12802235     0.11900
H1734       H  0.34204703  0.52257929  0.08469653     0.11700
H1735       H  0.38114491  0.52341338  0.05557317     0.12200
H1736       H  0.43025067  0.98611134  0.11704497     0.14100
C1737       C  0.00338177  0.58026748  0.40364468    -0.05900
C1738       C  0.50210567  0.57103937  0.37710604    -0.05800
C1739       C  0.50082967  0.58907299  0.35587597    -0.24000
C1740       C  0.50066093  0.61679384  0.36060117     0.18200
C1741       C  0.00213885  0.62633579  0.38711776     0.15500
C1742       C  0.00334442  0.60809467  0.40837251    -0.19000
C1743       C  0.00200436  0.65400313  0.39193470    -0.20800
C1744       C  0.00058148  0.67208616  0.37081528    -0.13400
C1745       C  0.99916639  0.66298904  0.34427328     0.03300
C1746       C  0.49910273  0.63510790  0.33936309    -0.25500
H1747       H  0.50209991  0.54976881  0.37267688     0.08400
H1748       H  0.49987557  0.58131199  0.33575471     0.12000
H1749       H  0.00398555  0.61562397  0.42859373     0.11900
H1750       H  0.00302869  0.66169834  0.41207838     0.11700
H1751       H  0.00071108  0.69332137  0.37538976     0.12200
H1752       H  0.49803006  0.62764378  0.31913806     0.14100
C1753       C  0.00109195  0.84211590  0.33505511    -0.05900
C1754       C  0.00963262  0.86781944  0.32731255    -0.05800
C1755       C  0.00953932  0.88901522  0.34538074    -0.24000
C1756       C  0.00090016  0.88488626  0.37149110     0.18200
C1757       C  0.49210940  0.85907474  0.37957271     0.15500
C1758       C  0.49206872  0.83787738  0.36125925    -0.19000
C1759       C  0.48367265  0.85500619  0.40579693    -0.20800
C1760       C  0.48434097  0.87615058  0.42402990    -0.13400
C1761       C  0.99305320  0.90187413  0.41612395     0.03300
C1762       C  0.00109053  0.90605926  0.38975766    -0.25500
H1763       H  0.01668013  0.87154035  0.30730081     0.08400
H1764       H  0.01637404  0.90858959  0.33897295     0.12000
H1765       H  0.48510211  0.81823466  0.36735489     0.11900
H1766       H  0.47678987  0.83546305  0.41225177     0.11700
H1767       H  0.47789774  0.87245772  0.44424458     0.12200
H1768       H  0.00801463  0.92567723  0.38353876     0.14100
C1769       C  0.01149886  0.83897416  0.16210401    -0.05900
C1770       C  0.51962072  0.86448075  0.17156735    -0.05800
C1771       C  0.51973697  0.88681155  0.15495291    -0.24000
C1772       C  0.51134322  0.88443210  0.12855444     0.18200
C1773       C  0.00354688  0.85890970  0.11864718     0.15500
C1774       C  0.00381202  0.83631781  0.13539239    -0.19000
C1775       C  0.99463186  0.85664679  0.09242243    -0.20800
C1776       C  0.99347721  0.87924669  0.07621118    -0.13400
C1777       C  0.00141786  0.90477975  0.08565054     0.03300
C1778       C  0.51035726  0.90716344  0.11198664    -0.25500
H1779       H  0.52578809  0.86728664  0.19203389     0.08400
H1780       H  0.52593415  0.90605344  0.16293022     0.12000
H1781       H  0.99710462  0.81702409  0.12792951     0.11900
H1782       H  0.98825601  0.83744000  0.08448815     0.11700
H1783       H  0.98619568  0.87660123  0.05608629     0.12200
H1784       H  0.51670878  0.92654433  0.11951901     0.14100
C1785       C  0.00522988  0.65358916  0.16549546    -0.05900
C1786       C  0.00348358  0.62704300  0.17497124    -0.05800
C1787       C  0.00546352  0.60514864  0.15765826    -0.24000
C1788       C  0.00903944  0.60917514  0.13035555     0.18200
C1789       C  0.51129494  0.63564570  0.12054151     0.15500
C1790       C  0.50942080  0.65766199  0.13807185    -0.19000
C1791       C  0.51496801  0.63966047  0.09326649    -0.20800
C1792       C  0.51545729  0.61782456  0.07577220    -0.13400
C1793       C  0.01226947  0.59136061  0.08504437     0.03300
C1794       C  0.00980022  0.58721959  0.11262665    -0.25500
H1795       H  0.00055087  0.62305406  0.19591135     0.08400
H1796       H  0.00389269  0.58504437  0.16562755     0.12000
H1797       H  0.51107980  0.67786733  0.13035798     0.11900
H1798       H  0.51693364  0.65975561  0.08535490     0.11700
H1799       H  0.51773917  0.62185459  0.05476397     0.12200
H1800       H  0.00764295  0.56703180  0.12025770     0.14100
O1801       O  0.00849904  0.54497547  0.57281733    -0.80800
O1802       O  0.00336605  0.53799744  0.92223713    -0.82300
O1803       O  0.05322273  0.56928729  0.49621707    -0.79300
O1804       O  0.46552563  0.57719377  0.49504388    -0.77700
O1805       O  0.43066269  0.54769154  0.49849389    -0.79500
O1806       O  0.08324072  0.53472087  0.49913974    -0.80500
O1807       O  0.00680952  0.57212140  0.95250252    -0.81800
O1808       O  0.00970157  0.57500530  0.53843218    -0.82100
Eu1809     Eu  0.00723228  0.55091522  0.49586498     2.39200
O1810       O  0.47742283  0.52622328  0.97148848    -0.89600
O1811       O  0.03203260  0.52207460  0.52352894    -0.93200
C1812       C  0.00978350  0.56920574  0.56344604     1.01500
C1813       C  0.00518290  0.56296709  0.92840684     1.01300
C1814       C  0.07733377  0.55994726  0.49841453     1.01300
C1815       C  0.44025959  0.57168016  0.49649652     0.99100
H1816       H  0.04299912  0.53186246  0.95919882     0.28900
O1817       O  0.03119164  0.52189151  0.97069674    -1.02000
H1818       H  0.46937960  0.53965517  0.53644812     0.28900
O1819       O  0.47950468  0.52711608  0.52580061    -1.04500
O1820       O  0.99797143  0.95018740  0.92446776    -0.81700
O1821       O  0.00043886  0.95359689  0.57632613    -0.81300
O1822       O  0.07806459  0.49107780  0.95388829    -0.79700
O1823       O  0.42630245  0.50333484  0.95682195    -0.83100
O1824       O  0.42851529  0.50429691  0.54387962    -0.80900
O1825       O  0.08086601  0.49239143  0.53982089    -0.79600
O1826       O  0.04023089  0.91786891  0.50093765    -0.81100
O1827       O  0.45081798  0.92697024  0.50219872    -0.83000
O1828       O  0.07498064  0.94755945  0.49716759    -0.79700
O1829       O  0.42108393  0.96188540  0.50097686    -0.82400
O1830       O  0.04463227  0.49212051  0.92273120    -0.78100
O1831       O  0.05079148  0.49723006  0.57390336    -0.78200
O1832       O  0.46019075  0.50039898  0.57669596    -0.77800
O1833       O  0.45716485  0.49942958  0.92350716    -0.81300
O1834       O  0.99577714  0.91944837  0.95803764    -0.80700
O1835       O  0.99426059  0.92166599  0.54413787    -0.79100
Eu1836     Eu  0.00138256  0.49549253  0.94512133     2.39800
Eu1837     Eu  0.00489832  0.49852173  0.55431777     2.39600
Eu1838     Eu  0.05713675  0.49281193  0.49665738     2.38400
Eu1839     Eu  0.44913226  0.50189182  0.50021308     2.39900
Eu1840     Eu  0.99759526  0.94334362  0.50127271     2.39800
O1841       O  0.47401363  0.97384450  0.52807967    -0.93500
O1842       O  0.02692997  0.96727800  0.97143258    -0.92400
C1843       C  0.99626115  0.92597393  0.93334409     1.01700
C1844       C  0.99603046  0.92904568  0.56856875     1.00400
C1845       C  0.06953825  0.49085148  0.92957360     0.99800
C1846       C  0.43285763  0.50177885  0.93217509     1.01800
C1847       C  0.43563541  0.50292921  0.56843520     1.00700
C1848       C  0.07500939  0.49450989  0.56480487     0.99600
C1849       C  0.06551265  0.92360647  0.49923996     0.99600
C1850       C  0.42674764  0.93668334  0.50152732     1.02200
H1851       H  0.03925928  0.95716303  0.53703590     0.29600
O1852       O  0.02855188  0.96890401  0.52611226    -1.05700
H1853       H  0.45985266  0.96007192  0.96192447     0.31700
O1854       O  0.47193520  0.97074715  0.97260871    -1.08200
O1855       O  0.00558275  0.70184130  0.67408082    -0.80800
O1856       O  0.00002750  0.70631417  0.82758424    -0.82300
O1857       O  0.04599900  0.66915381  0.74954702    -0.79300
O1858       O  0.45625161  0.67354344  0.75042465    -0.77700
O1859       O  0.42618976  0.70824498  0.75072611    -0.79500
O1860       O  0.07788851  0.70201307  0.74837643    -0.80500
O1861       O  0.00101675  0.67235839  0.79688353    -0.81800
O1862       O  0.00421030  0.67101532  0.70771538    -0.82100
Eu1863     Eu  0.00189536  0.69295780  0.75159370     2.39200
O1864       O  0.47547478  0.72234505  0.77770489    -0.89600
O1865       O  0.02939338  0.71951281  0.72432682    -0.93200
C1866       C  0.00558257  0.67739636  0.68284897     1.01500
C1867       C  0.00030207  0.68130764  0.82115660     1.01300
C1868       C  0.07063813  0.67733036  0.74758338     1.01300
C1869       C  0.43208592  0.68303722  0.75060131     0.99100
H1870       H  0.03965472  0.70810306  0.78980615     0.28900
O1871       O  0.02898648  0.71989929  0.77881640    -1.02000
H1872       H  0.46500917  0.71053604  0.71234173     0.28900
O1873       O  0.47671789  0.72141688  0.72327079    -1.04500
O1874       O  0.00580010  0.79391233  0.82594966    -0.81700
O1875       O  0.00524740  0.79224852  0.67334264    -0.81300
O1876       O  0.07848106  0.74129596  0.79475691    -0.79700
O1877       O  0.42652398  0.75356921  0.79160298    -0.83100
O1878       O  0.42858625  0.75027849  0.70714375    -0.80900
O1879       O  0.08112225  0.74313674  0.70967472    -0.79600
O1880       O  0.05238559  0.82137658  0.74897247    -0.81100
O1881       O  0.46431246  0.82640475  0.74669466    -0.83000
O1882       O  0.08253093  0.78698123  0.75092815    -0.79700
O1883       O  0.43040030  0.79558978  0.74613331    -0.82400
O1884       O  0.04691520  0.74368936  0.82767376    -0.78100
O1885       O  0.05082839  0.74436670  0.67554240    -0.78200
O1886       O  0.45948531  0.74876638  0.67361259    -0.77800
O1887       O  0.45691566  0.74969273  0.82542585    -0.81300
O1888       O  0.00946056  0.82516333  0.79281901    -0.80700
O1889       O  0.00814274  0.82373600  0.70650266    -0.79100
Eu1890     Eu  0.00272872  0.74921838  0.80517731     2.39800
Eu1891     Eu  0.00487075  0.74715345  0.69501688     2.39600
Eu1892     Eu  0.05700549  0.74556096  0.75155045     2.38400
Eu1893     Eu  0.45084934  0.75077178  0.74974389     2.39900
Eu1894     Eu  0.00703556  0.80215037  0.74980995     2.39800
O1895       O  0.47931337  0.77590026  0.72247336    -0.93500
O1896       O  0.03207392  0.77472297  0.77850210    -0.92400
C1897       C  0.00844382  0.81821688  0.81748078     1.01700
C1898       C  0.00681964  0.81681458  0.68184396     1.00400
C1899       C  0.07138236  0.74084184  0.81933239     0.99800
C1900       C  0.43258303  0.75184028  0.81641815     1.01800
C1901       C  0.43501481  0.74963686  0.68243776     1.00700
C1902       C  0.07511238  0.74291340  0.68480646     0.99600
C1903       C  0.07654308  0.81200224  0.74936294     0.99600
C1904       C  0.43924644  0.81992320  0.74539901     1.02200
H1905       H  0.04486672  0.78385720  0.71199912     0.29600
O1906       O  0.03274699  0.77347907  0.72281379    -1.05700
H1907       H  0.46682311  0.78969249  0.78778958     0.31700
O1908       O  0.47778738  0.77762303  0.77735982    -1.08200
O1909       O  0.32897830  0.99221354  0.70580479    -0.80800
O1910       O  0.17567125  0.99953534  0.70953378    -0.82300
O1911       O  0.25237301  0.94893511  0.67730443    -0.79300
O1912       O  0.25053040  0.53767163  0.67356046    -0.77700
O1913       O  0.25210671  0.57203835  0.70376566    -0.79500
O1914       O  0.24975442  0.91854008  0.71124869    -0.80500
O1915       O  0.20629812  0.99578283  0.67583050    -0.81800
O1916       O  0.29711589  0.99378958  0.67314333    -0.82100
Eu1917     Eu  0.25205202  0.99462258  0.69590592     2.39200
O1918       O  0.22668413  0.52177548  0.72409443    -0.89600
O1919       O  0.27799497  0.96711254  0.72397359    -0.93200
C1920       C  0.32188058  0.99255366  0.68126536     1.01500
C1921       C  0.18190850  0.99796870  0.68462599     1.01300
C1922       C  0.25115112  0.92472505  0.68632840     1.01300
C1923       C  0.25071613  0.56292940  0.67971101     0.99100
H1924       H  0.21257841  0.95896314  0.71544417     0.28900
O1925       O  0.22452556  0.97017802  0.72568689    -1.02000
H1926       H  0.29154147  0.53268895  0.70943508     0.28900
O1927       O  0.28057405  0.52225413  0.72134728    -1.04500
O1928       O  0.17872783  0.00021848  0.79784227    -0.81700
O1929       O  0.33160393  0.99742590  0.78933055    -0.81300
O1930       O  0.20560308  0.92285034  0.75507308    -0.79700
O1931       O  0.20917056  0.57314879  0.74806028    -0.83100
O1932       O  0.30030719  0.57182110  0.74603454    -0.80900
O1933       O  0.29282933  0.91851186  0.75432547    -0.79600
O1934       O  0.25558078  0.95886240  0.82952800    -0.81100
O1935       O  0.25488941  0.54415095  0.82520357    -0.83000
O1936       O  0.25132970  0.92443673  0.79967186    -0.79700
O1937       O  0.25445626  0.57470855  0.79139393    -0.82400
O1938       O  0.17514113  0.95704893  0.75350277    -0.78100
O1939       O  0.32664133  0.94923268  0.75056630    -0.78200
O1940       O  0.33156224  0.53817303  0.74484815    -0.77800
O1941       O  0.17851192  0.53934677  0.75276424    -0.81300
O1942       O  0.21281238  0.00167448  0.82829835    -0.80700
O1943       O  0.30132726  0.00178585  0.82312394    -0.79100
Eu1944     Eu  0.19923913  0.99941093  0.75260764     2.39800
Eu1945     Eu  0.30677856  0.99489171  0.74842797     2.39600
Eu1946     Eu  0.25057098  0.94304106  0.75392497     2.38400
Eu1947     Eu  0.25450130  0.55136949  0.74814851     2.39900
Eu1948     Eu  0.25551819  0.00088682  0.80430042     2.39800
O1949       O  0.28292951  0.52508046  0.77519823    -0.93500
O1950       O  0.22586291  0.97283707  0.78053637    -0.92400
C1951       C  0.18770590  0.00103482  0.82204082     1.01700
C1952       C  0.32553614  0.00009245  0.81395838     1.00400
C1953       C  0.18137109  0.93201393  0.75423014     0.99800
C1954       C  0.18480644  0.56424749  0.75064503     1.01800
C1955       C  0.32486187  0.56316159  0.74464420     1.00700
C1956       C  0.31782814  0.92488244  0.75264182     0.99600
C1957       C  0.25354012  0.93372026  0.82366189     0.99600
C1958       C  0.25419717  0.56838613  0.81630419     1.02200
H1959       H  0.29146561  0.95971154  0.78950819     0.29600
O1960       O  0.28016738  0.97053152  0.77821846    -1.05700
H1961       H  0.21739538  0.53659229  0.78841385     0.31700
O1962       O  0.22844921  0.52515502  0.77742674    -1.08200
O1963       O  0.20379724  0.67378297  0.00368817    -0.80800
O1964       O  0.21192271  0.82506451  0.99535925    -0.82300
O1965       O  0.17714463  0.75128630  0.54301285    -0.79300
O1966       O  0.17657517  0.75068065  0.95792719    -0.77700
O1967       O  0.20665805  0.74409484  0.92422551    -0.79500
O1968       O  0.20833220  0.75063520  0.57634898    -0.80500
O1969       O  0.17764103  0.79473824  0.99778450    -0.81800
O1970       O  0.17354198  0.70807555  0.00062312    -0.82100
Eu1971     Eu  0.19880537  0.75038743  0.00082798     2.39200
O1972       O  0.22673427  0.77372093  0.97130069    -0.89600
O1973       O  0.22484469  0.72464267  0.52926986    -0.93200
C1974       C  0.17964381  0.68292931  0.00154153     1.01500
C1975       C  0.18675884  0.81890503  0.99626048     1.01300
C1976       C  0.18376933  0.75044955  0.56771148     1.01300
C1977       C  0.18257691  0.74770286  0.93323526     0.99100
H1978       H  0.21696904  0.79113733  0.53632419     0.28900
O1979       O  0.22777526  0.77883138  0.52604259    -1.02000
H1980       H  0.21170927  0.70881841  0.96473296     0.28900
O1981       O  0.22371815  0.72000141  0.97496646    -1.04500
O1982       O  0.30025672  0.82148812  0.99735480    -0.81700
O1983       O  0.29197565  0.66879424  0.00317928    -0.81300
O1984       O  0.25415317  0.79760976  0.57327476    -0.79700
O1985       O  0.25285426  0.78626129  0.92093320    -0.83100
O1986       O  0.25002385  0.69698743  0.92770514    -0.80900
O1987       O  0.25437710  0.70992734  0.58045106    -0.79600
O1988       O  0.33021257  0.74988435  0.54266974    -0.81100
O1989       O  0.32784963  0.73863134  0.95485239    -0.83000
O1990       O  0.29913987  0.75383988  0.57593051    -0.79700
O1991       O  0.29598909  0.73909973  0.92214612    -0.82400
O1992       O  0.25757940  0.82754698  0.53903055    -0.78100
O1993       O  0.25019036  0.67560664  0.55042987    -0.78200
O1994       O  0.24762660  0.66735841  0.96228689    -0.77800
O1995       O  0.25546201  0.82067713  0.95105236    -0.81300
O1996       O  0.33034823  0.78688894  0.99856179    -0.80700
O1997       O  0.32598422  0.69931369  0.99966519    -0.79100
Eu1998     Eu  0.25529999  0.80161716  0.99622155     2.39800
Eu1999     Eu  0.24913009  0.69312786  0.00397818     2.39600
Eu2000     Eu  0.25361853  0.75184734  0.55501587     2.38400
Eu2001     Eu  0.25173570  0.74331445  0.94506364     2.39900
Eu2002     Eu  0.30592997  0.74410045  0.99804033     2.39800
O2003       O  0.27697895  0.71630579  0.97398020    -0.93500
O2004       O  0.28151331  0.77570102  0.52559294    -0.92400
C2005       C  0.32436091  0.81207936  0.99861285     1.01700
C2006       C  0.31705290  0.67511201  0.00143579     1.00400
C2007       C  0.25623855  0.82166577  0.56402131     0.99800
C2008       C  0.25435936  0.81144792  0.92702363     1.01800
C2009       C  0.24847028  0.67296316  0.93725091     1.00700
C2010       C  0.25247437  0.68476487  0.57454146     0.99600
C2011       C  0.32367022  0.75311065  0.56726026     0.99600
C2012       C  0.32067013  0.73760625  0.93025473     1.02200
H2013       H  0.29029381  0.71061774  0.54069749     0.29600
O2014       O  0.27916904  0.72145807  0.52925430    -1.05700
H2015       H  0.29246470  0.78131471  0.95802026     0.31700
O2016       O  0.28063985  0.77153738  0.96970544    -1.08200
C2017       C  0.25308407  0.66521510  0.59714286    -0.05900
C2018       C  0.25694977  0.67424807  0.62348881    -0.05800
C2019       C  0.25709703  0.65624492  0.64483937    -0.24000
C2020       C  0.25327496  0.62870407  0.64049346     0.18200
C2021       C  0.24953428  0.61927660  0.61423286     0.15500
C2022       C  0.24966089  0.63746814  0.59278440    -0.19000
C2023       C  0.24552267  0.59177926  0.60986399    -0.20800
C2024       C  0.24549550  0.57376798  0.63114933    -0.13400
C2025       C  0.24958646  0.58269867  0.65742500     0.03300
C2026       C  0.25320549  0.61044519  0.66190575    -0.25500
H2027       H  0.25982309  0.69536231  0.62771894     0.08400
H2028       H  0.26008049  0.66391841  0.66479962     0.12000
H2029       H  0.24679939  0.62999227  0.57273637     0.11900
H2030       H  0.24244556  0.58413850  0.58991208     0.11700
H2031       H  0.24240588  0.55268723  0.62691310     0.12200
H2032       H  0.25629377  0.61784196  0.68195615     0.14100
C2033       C  0.25127820  0.90249905  0.66658643    -0.05900
C2034       C  0.24308729  0.87658078  0.67396804    -0.05800
C2035       C  0.24244725  0.85576679  0.65532387    -0.24000
C2036       C  0.25025427  0.86034386  0.62896642     0.18200
C2037       C  0.25900928  0.88612637  0.62131949     0.15500
C2038       C  0.25936852  0.90705305  0.64012115    -0.19000
C2039       C  0.26710604  0.89052044  0.59496854    -0.20800
C2040       C  0.26613781  0.86965705  0.57629463    -0.13400
C2041       C  0.25716670  0.84396906  0.58364422     0.03300
C2042       C  0.24937821  0.83952450  0.61016037    -0.25500
H2043       H  0.23675537  0.87243434  0.69412626     0.08400
H2044       H  0.23574754  0.83607842  0.66151872     0.12000
H2045       H  0.26600164  0.92683801  0.63413257     0.11900
H2046       H  0.27410747  0.91010451  0.58877700     0.11700
H2047       H  0.27258592  0.87360434  0.55612991     0.12200
H2048       H  0.24241469  0.81987066  0.61620403     0.14100
C2049       C  0.25379622  0.91426780  0.84608872    -0.05900
C2050       C  0.25220704  0.92329321  0.87262453    -0.05800
C2051       C  0.25224327  0.90507654  0.89373496    -0.24000
C2052       C  0.25393879  0.87742720  0.88880691     0.18200
C2053       C  0.25585582  0.86812493  0.86232430     0.15500
C2054       C  0.25569091  0.88651796  0.84120633    -0.19000
C2055       C  0.25776994  0.84052323  0.85735133    -0.20800
C2056       C  0.25731140  0.82223438  0.87833976    -0.13400
C2057       C  0.25505459  0.83112199  0.90483009     0.03300
C2058       C  0.25358198  0.85892547  0.90986408    -0.25500
H2059       H  0.25072659  0.94449558  0.87713358     0.08400
H2060       H  0.25083666  0.91262262  0.91391018     0.12000
H2061       H  0.25709625  0.87916088  0.82096363     0.11900
H2062       H  0.25946843  0.83304099  0.83717967     0.11700
H2063       H  0.25874903  0.80105074  0.87374685     0.12200
H2064       H  0.25192096  0.86621612  0.93011439     0.14100
C2065       C  0.25298604  0.59062431  0.83592601    -0.05900
C2066       C  0.25720452  0.61714828  0.82751135    -0.05800
C2067       C  0.25654329  0.63835397  0.84560342    -0.24000
C2068       C  0.25173462  0.63354799  0.87256851     0.18200
C2069       C  0.24727296  0.60705917  0.88143260     0.15500
C2070       C  0.24776298  0.58573362  0.86304122    -0.19000
C2071       C  0.24283196  0.60241765  0.90857104    -0.20800
C2072       C  0.24322489  0.62376910  0.92672511    -0.13400
C2073       C  0.24769216  0.65023918  0.91805799     0.03300
C2074       C  0.25171062  0.65487075  0.89079699    -0.25500
H2075       H  0.26132702  0.62158686  0.80686163     0.08400
H2076       H  0.26007756  0.65854155  0.83850583     0.12000
H2077       H  0.24426517  0.56542883  0.86986981     0.11900
H2078       H  0.23936067  0.58226472  0.91580373     0.11700
H2079       H  0.24001465  0.61951118  0.94757361     0.12200
H2080       H  0.25525247  0.67506640  0.88369922     0.14100
C2081       C  0.40936828  0.66379938  0.75077496    -0.05900
C2082       C  0.38416166  0.67176201  0.76064270    -0.05800
C2083       C  0.36254266  0.65388963  0.76092980    -0.24000
C2084       C  0.36560517  0.62767108  0.75126650     0.18200
C2085       C  0.39085341  0.61938178  0.74133960     0.15500
C2086       C  0.41255679  0.63746386  0.74114133    -0.19000
C2087       C  0.39399120  0.59306333  0.73199429    -0.20800
C2088       C  0.37248126  0.57502985  0.73286119    -0.13400
C2089       C  0.34720646  0.58297136  0.74277392     0.03300
C2090       C  0.34391967  0.60954516  0.75167330    -0.25500
H2091       H  0.38119456  0.69182255  0.76843392     0.08400
H2092       H  0.34342848  0.66056543  0.76881265     0.12000
H2093       H  0.43183626  0.63108782  0.73336475     0.11900
H2094       H  0.41315866  0.58632519  0.72426740     0.11700
H2095       H  0.37566644  0.55476359  0.72571540     0.12200
H2096       H  0.32469218  0.61594342  0.75952981     0.14100
C2097       C  0.41935411  0.84204523  0.74356732    -0.05900
C2098       C  0.42783772  0.86831422  0.73779348    -0.05800
C2099       C  0.40973648  0.88971530  0.73848879    -0.24000
C2100       C  0.38274474  0.88531982  0.74494001     0.18200
C2101       C  0.37374475  0.85890967  0.74988747     0.15500
C2102       C  0.39200182  0.83743118  0.74891890    -0.19000
C2103       C  0.34672602  0.85449262  0.75619730    -0.20800
C2104       C  0.32879350  0.87599647  0.75754085    -0.13400
C2105       C  0.33745980  0.90243273  0.75259638     0.03300
C2106       C  0.36464049  0.90689602  0.74648732    -0.25500
H2107       H  0.44865197  0.87244821  0.73313992     0.08400
H2108       H  0.41695012  0.90977243  0.73434270     0.12000
H2109       H  0.38504920  0.81730254  0.75321931     0.11900
H2110       H  0.33944091  0.83440485  0.76009435     0.11700
H2111       H  0.30802047  0.87181790  0.76234310     0.12200
H2112       H  0.37166839  0.92706730  0.74253354     0.14100
C2113       C  0.16166161  0.58301887  0.75191253    -0.05900
C2114       C  0.13771488  0.57411599  0.76397913    -0.05800
C2115       C  0.11476679  0.59006575  0.76444542    -0.24000
C2116       C  0.11508408  0.61551208  0.75298473     0.18200
C2117       C  0.13897477  0.62488572  0.74080543     0.15500
C2118       C  0.16221084  0.60866446  0.74043898    -0.19000
C2119       C  0.13917652  0.65037356  0.72930640    -0.20800
C2120       C  0.11644717  0.66668328  0.73075644    -0.13400
C2121       C  0.09289423  0.65795983  0.74367470     0.03300
C2122       C  0.09209794  0.63195399  0.75411939    -0.25500
H2123       H  0.13662195  0.55455517  0.77321835     0.08400
H2124       H  0.09678419  0.58249227  0.77392603     0.12000
H2125       H  0.18038858  0.61575955  0.73092858     0.11900
H2126       H  0.15704750  0.65791844  0.71959993     0.11700
H2127       H  0.11748165  0.68651162  0.72207113     0.12200
H2128       H  0.07411853  0.62498271  0.76407984     0.14100
C2129       C  0.15896487  0.91271525  0.75331822    -0.05900
C2130       C  0.13235434  0.92193574  0.75562523    -0.05800
C2131       C  0.11091445  0.90413563  0.75406478    -0.24000
C2132       C  0.11567476  0.87676550  0.75034937     0.18200
C2133       C  0.14227450  0.86725385  0.74749842     0.15500
C2134       C  0.16377500  0.88527390  0.74904021    -0.19000
C2135       C  0.14690319  0.83983223  0.74359350    -0.20800
C2136       C  0.12544572  0.82187830  0.74380024    -0.13400
C2137       C  0.09901310  0.83111577  0.74767732     0.03300
C2138       C  0.09424795  0.85871224  0.75018272    -0.25500
H2139       H  0.12801001  0.94299194  0.75874782     0.08400
H2140       H  0.09063165  0.91174369  0.75611703     0.12000
H2141       H  0.18415245  0.87792324  0.74688905     0.11900
H2142       H  0.16711329  0.83221767  0.74095175     0.11700
H2143       H  0.12962449  0.80071123  0.74121881     0.12200
H2144       H  0.07395826  0.86614153  0.75283606     0.14100
C2145       C  0.34633638  0.75638487  0.58634257    -0.05900
C2146       C  0.37118381  0.76644010  0.57736159    -0.05800
C2147       C  0.39345213  0.76783330  0.59429679    -0.24000
C2148       C  0.39149508  0.75895840  0.62060044     0.18200
C2149       C  0.36637103  0.74977384  0.63013392     0.15500
C2150       C  0.34395549  0.74870913  0.61306554    -0.19000
C2151       C  0.36417584  0.74121473  0.65645916    -0.20800
C2152       C  0.38662715  0.74114211  0.67299882    -0.13400
C2153       C  0.41195497  0.74959948  0.66370961     0.03300
C2154       C  0.41421137  0.75874106  0.63740711    -0.25500
H2155       H  0.37349718  0.77304301  0.55700712     0.08400
H2156       H  0.41232685  0.77536101  0.58664319     0.12000
H2157       H  0.32497180  0.74102973  0.62032296     0.11900
H2158       H  0.34512334  0.73427409  0.66422202     0.11700
H2159       H  0.38411703  0.73409596  0.69319020     0.12200
H2160       H  0.43343698  0.76577036  0.63012233     0.14100
C2161       C  0.09807823  0.74125233  0.66600858    -0.05900
C2162       C  0.12435961  0.73689553  0.67561746    -0.05800
C2163       C  0.14640463  0.73705880  0.65842996    -0.24000
C2164       C  0.14274330  0.74186465  0.63126738     0.18200
C2165       C  0.11640636  0.74564218  0.62134833     0.15500
C2166       C  0.09429527  0.74500594  0.63864257    -0.19000
C2167       C  0.11258471  0.75070257  0.59433550    -0.20800
C2168       C  0.13455301  0.75241546  0.57732679    -0.13400
C2169       C  0.16100561  0.74893536  0.58679636     0.03300
C2170       C  0.16491387  0.74341030  0.61393211    -0.25500
H2171       H  0.12802525  0.73366560  0.69658174     0.08400
H2172       H  0.16634875  0.73394934  0.66648275     0.12000
H2173       H  0.07425803  0.74827159  0.63086390     0.11900
H2174       H  0.09258397  0.75368530  0.58636712     0.11700
H2175       H  0.13066150  0.75665196  0.55658532     0.12200
H2176       H  0.18505527  0.74042404  0.62155246     0.14100
C2177       C  0.15963984  0.74833892  0.91455429    -0.05900
C2178       C  0.13482466  0.75870046  0.92328469    -0.05800
C2179       C  0.11232853  0.75823798  0.90686527    -0.24000
C2180       C  0.11404328  0.74730850  0.88133896     0.18200
C2181       C  0.13884250  0.73683152  0.87222835     0.15500
C2182       C  0.16158504  0.73763284  0.88878439    -0.19000
C2183       C  0.14037979  0.72562322  0.84675900    -0.20800
C2184       C  0.11788072  0.72566059  0.83021558    -0.13400
C2185       C  0.09344752  0.73713965  0.83867968     0.03300
C2186       C  0.09146168  0.74720132  0.86462484    -0.25500
H2187       H  0.13268320  0.76721474  0.94299942     0.08400
H2188       H  0.09356118  0.76639975  0.91418531     0.12000
H2189       H  0.18050354  0.72943564  0.88185497     0.11900
H2190       H  0.15905209  0.71720764  0.83947280     0.11700
H2191       H  0.11982682  0.71729316  0.81041499     0.12200
H2192       H  0.07276532  0.75602280  0.87138630     0.14100
C2193       C  0.40953932  0.75191064  0.83530555    -0.05900
C2194       C  0.38472511  0.76293489  0.82738842    -0.05800
C2195       C  0.36220771  0.76169388  0.84392793    -0.24000
C2196       C  0.36374835  0.74898175  0.86866296     0.18200
C2197       C  0.38848382  0.73770663  0.87688307     0.15500
C2198       C  0.41129176  0.73952206  0.86034021    -0.19000
C2199       C  0.38989897  0.72464119  0.90145796    -0.20800
C2200       C  0.36738738  0.72352442  0.91804440    -0.13400
C2201       C  0.34287534  0.73544505  0.91052616     0.03300
C2202       C  0.34107102  0.74764493  0.88541880    -0.25500
H2203       H  0.38266056  0.77258184  0.80823460     0.08400
H2204       H  0.34350098  0.77050375  0.83724265     0.12000
H2205       H  0.43012574  0.73064988  0.86661355     0.11900
H2206       H  0.40852996  0.71559818  0.90804684     0.11700
H2207       H  0.36932792  0.71376020  0.93715569     0.12200
H2208       H  0.32240826  0.75703700  0.87939388     0.14100
C2209       C  0.40424950  0.91740358  0.50070622    -0.05900
C2210       C  0.37839899  0.92543378  0.49265220    -0.05800
C2211       C  0.35763364  0.90667704  0.49063886    -0.24000
C2212       C  0.36240819  0.87965026  0.49668538     0.18200
C2213       C  0.38826875  0.87150817  0.50492394     0.15500
C2214       C  0.41129990  0.88626817  0.00486476    -0.19000
C2215       C  0.39338445  0.84129806  0.01154467    -0.20800
C2216       C  0.37201294  0.82321991  0.01002967    -0.13400
C2217       C  0.34681439  0.83348060  0.50057319     0.03300
C2218       C  0.34182290  0.86060830  0.49463596    -0.25500
H2219       H  0.37432569  0.94611148  0.48747757     0.08400
H2220       H  0.33793620  0.91325746  0.48420308     0.12000
H2221       H  0.43072964  0.87961661  0.01202071     0.11900
H2222       H  0.41260658  0.83440655  0.01897573     0.11700
H2223       H  0.37522449  0.80275924  0.01647738     0.12200
H2224       H  0.32198482  0.86692908  0.48834735     0.14100
C2225       C  0.33820839  0.65427037  0.50061426    -0.05900
C2226       C  0.32906436  0.62687321  0.00829003    -0.05800
C2227       C  0.34770698  0.60599070  0.00858576    -0.24000
C2228       C  0.37460851  0.61084048  0.00206965     0.18200
C2229       C  0.38436046  0.63781820  0.49735190     0.15500
C2230       C  0.36596240  0.65922061  0.49810470    -0.19000
C2231       C  0.41199225  0.64256182  0.49477470    -0.20800
C2232       C  0.43010584  0.62110598  0.49417501    -0.13400
C2233       C  0.42097672  0.59445203  0.49626109     0.03300
C2234       C  0.39333233  0.58985056  0.00220020    -0.25500
H2235       H  0.30843320  0.62248644  0.01348879     0.08400
H2236       H  0.34106374  0.58602036  0.01389922     0.12000
H2237       H  0.37328166  0.67964075  0.49669417     0.11900
H2238       H  0.41961156  0.66285768  0.49327276     0.11700
H2239       H  0.45131643  0.62545418  0.49224428     0.12200
H2240       H  0.38680094  0.56983924  0.00753358     0.14100
C2241       C  0.16944362  0.84375779  0.49609749    -0.05900
C2242       C  0.17607431  0.86745899  0.00230363    -0.05800
C2243       C  0.15814876  0.88893533  0.00263819    -0.24000
C2244       C  0.13096895  0.88480080  0.99687676     0.18200
C2245       C  0.12301922  0.85916888  0.49904324     0.15500
C2246       C  0.14183203  0.83825560  0.49832607    -0.19000
C2247       C  0.09552068  0.85364679  0.50136242    -0.20800
C2248       C  0.07681641  0.87454028  0.50166656    -0.13400
C2249       C  0.08527681  0.90135836  0.49968644    -0.02300
C2250       C  0.11280360  0.90627705  0.99783468    -0.25500
H2251       H  0.19690476  0.87129925  0.00720175     0.08400
H2252       H  0.16553335  0.90876446  0.00763395     0.12000
H2253       H  0.13490410  0.81769875  0.49965793     0.11900
H2254       H  0.08845605  0.83314656  0.50276601     0.11700
H2255       H  0.05570080  0.86964343  0.50326880     0.12200
H2256       H  0.12000927  0.92614584  0.00298818     0.14100
C2257       C  0.15852133  0.66343377  0.49903226    -0.05900
C2258       C  0.13146613  0.67151342  0.99227003    -0.05800
C2259       C  0.11066145  0.65290935  0.98980872    -0.24000
C2260       C  0.11551036  0.62561667  0.99427687     0.18200
C2261       C  0.14114223  0.61810522  0.50651602     0.15500
C2262       C  0.16166819  0.63734241  0.50932605    -0.19000
C2263       C  0.14407642  0.59219284  0.51699056    -0.20800
C2264       C  0.12356531  0.57316571  0.51400093    -0.13400
C2265       C  0.09961110  0.57972200  0.50064510     0.03300
C2266       C  0.09451764  0.60699104  0.99275109    -0.25500
H2267       H  0.12710577  0.69246698  0.98865135     0.08400
H2268       H  0.09074129  0.65989724  0.98458566     0.12000
H2269       H  0.18001892  0.63203582  0.51965320     0.11900
H2270       H  0.16220497  0.58666015  0.52756704     0.11700
H2271       H  0.12625869  0.55343582  0.52255931     0.12200
H2272       H  0.07441946  0.61390495  0.98810202     0.14100
C2273       C  0.34964980  0.50231191  0.83257802    -0.05900
C2274       C  0.37591854  0.50663121  0.82311563    -0.05800
C2275       C  0.39757161  0.50765087  0.84064454    -0.24000
C2276       C  0.39333419  0.50433244  0.86790767     0.18200
C2277       C  0.36537464  0.99990669  0.87778710     0.15500
C2278       C  0.34373357  0.99945551  0.86009805    -0.19000
C2279       C  0.36083479  0.99789441  0.90507833    -0.20800
C2280       C  0.38237499  0.99821592  0.92266981    -0.13400
C2281       C  0.41046116  0.50182751  0.91302956     0.03300
C2282       C  0.41495881  0.50517623  0.88572088    -0.25500
H2283       H  0.37979724  0.50931373  0.80211387     0.08400
H2284       H  0.41757944  0.51101370  0.83288570     0.12000
H2285       H  0.32345633  0.99753012  0.86769099     0.11900
H2286       H  0.34063326  0.99595552  0.91283528     0.11700
H2287       H  0.37812988  0.99635826  0.94368529     0.12200
H2288       H  0.43514946  0.50842355  0.87835501     0.14100
C2289       C  0.08930627  0.48932749  0.90757643    -0.05900
C2290       C  0.08096810  0.48033898  0.88232970    -0.05800
C2291       C  0.09867543  0.48013554  0.86082854    -0.24000
C2292       C  0.12516052  0.48902066  0.86400269     0.18200
C2293       C  0.13233243  0.00021281  0.88813346     0.15500
C2294       C  0.11433909  0.99974790  0.90970545    -0.19000
C2295       C  0.15836657  0.01040407  0.89121729    -0.20800
C2296       C  0.17612584  0.01074382  0.86969493    -0.13400
C2297       C  0.16968427  0.49791400  0.84549747     0.03300
C2298       C  0.14300369  0.48917926  0.84227599    -0.25500
H2299       H  0.06058453  0.47346163  0.87912648     0.08400
H2300       H  0.09157530  0.47316147  0.84165596     0.12000
H2301       H  0.12054963  0.00762996  0.92885610     0.11900
H2302       H  0.16504190  0.01805375  0.91029486     0.11700
H2303       H  0.19612540  0.01870014  0.87278652     0.12200
H2304       H  0.13619180  0.48223865  0.82297913     0.14100
C2305       C  0.09790848  0.49345287  0.58417855    -0.05900
C2306       C  0.12443331  0.48985081  0.57501300    -0.05800
C2307       C  0.14612091  0.48873821  0.59275249    -0.24000
C2308       C  0.14196885  0.49121197  0.62022090     0.18200
C2309       C  0.11529078  0.99925530  0.62889449     0.15500
C2310       C  0.09347444  0.99914692  0.61095437    -0.19000
C2311       C  0.11096573  0.00198382  0.65628226    -0.20800
C2312       C  0.13257011  0.00160854  0.67407996    -0.13400
C2313       C  0.15957968  0.49331673  0.66585851     0.03300
C2314       C  0.16381769  0.49070953  0.63821034    -0.25500
H2315       H  0.12855609  0.48789510  0.55397018     0.08400
H2316       H  0.16620489  0.48603460  0.58492418     0.12000
H2317       H  0.07323305  0.00145374  0.61851811     0.11900
H2318       H  0.09078591  0.00421657  0.66401558     0.11700
H2319       H  0.12827137  0.00358544  0.69508538     0.12200
H2320       H  0.18406366  0.48848273  0.63063666     0.14100
C2321       C  0.34461006  0.49040893  0.66141888    -0.05900
C2322       C  0.36785983  0.97697818  0.66916820    -0.05800
C2323       C  0.39051070  0.97669200  0.65283111    -0.24000
C2324       C  0.39066512  0.99110694  0.62904225     0.18200
C2325       C  0.36752808  0.50510514  0.62107771     0.15500
C2326       C  0.34464885  0.50515388  0.63765915    -0.19000
C2327       C  0.36807812  0.52049951  0.59786948    -0.20800
C2328       C  0.39066991  0.52021234  0.58146078    -0.13400
C2329       C  0.41332816  0.50460575  0.58781757     0.03300
C2330       C  0.41351959  0.99089317  0.61248018    -0.25500
H2331       H  0.36862460  0.96592050  0.68765472     0.08400
H2332       H  0.40801068  0.96536211  0.65896378     0.12000
H2333       H  0.32734581  0.51729675  0.63256626     0.11900
H2334       H  0.35097432  0.53268756  0.59230554     0.11700
H2335       H  0.39035237  0.53216559  0.56351327     0.12200
H2336       H  0.43088869  0.97890643  0.61774349     0.14100
C2337       C  0.00515375  0.58189908  0.90575145    -0.05900
C2338       C  0.50647122  0.57188843  0.87960772    -0.05800
C2339       C  0.50558130  0.58910621  0.85784852    -0.24000
C2340       C  0.50345967  0.61679794  0.86173821     0.18200
C2341       C  0.00245495  0.62714772  0.88787812     0.15500
C2342       C  0.00343079  0.60970712  0.90974520    -0.19000
C2343       C  0.00053898  0.65481792  0.89181442    -0.20800
C2344       C  0.99955372  0.67207171  0.87008911    -0.13400
C2345       C  0.00042488  0.66213801  0.84378578     0.03300
C2346       C  0.50241140  0.63428516  0.83986005    -0.25500
H2347       H  0.50801318  0.55056178  0.87575467     0.08400
H2348       H  0.50646352  0.58072200  0.83797322     0.12000
H2349       H  0.00255619  0.61777329  0.92976289     0.11900
H2350       H  0.99985536  0.66316744  0.91171686     0.11700
H2351       H  0.99822678  0.69338385  0.87406065     0.12200
H2352       H  0.50339794  0.62624463  0.81984442     0.14100
C2353       C  0.01013857  0.83987020  0.83734657    -0.05900
C2354       C  0.02640037  0.86235235  0.83254117    -0.05800
C2355       C  0.02698380  0.88368872  0.85052235    -0.24000
C2356       C  0.01099882  0.88302477  0.87338286     0.18200
C2357       C  0.49488722  0.86022360  0.87865514     0.15500
C2358       C  0.49477303  0.83865370  0.86071990    -0.19000
C2359       C  0.47886138  0.85964275  0.90152938    -0.20800
C2360       C  0.47910268  0.88126365  0.91920608    -0.13400
C2361       C  0.99508098  0.90390004  0.91405886     0.03300
C2362       C  0.01085451  0.90476326  0.89105315    -0.25500
H2363       H  0.03864789  0.86341545  0.81479169     0.08400
H2364       H  0.03965094  0.90084430  0.84637904     0.12000
H2365       H  0.48202045  0.82143153  0.86439449     0.11900
H2366       H  0.46624924  0.84247660  0.90578301     0.11700
H2367       H  0.46672788  0.88039705  0.93688727     0.12200
H2368       H  0.02341932  0.92209527  0.88722846     0.14100
C2369       C  0.00738866  0.83933381  0.66262322    -0.05900
C2370       C  0.52181355  0.86262795  0.66941076    -0.05800
C2371       C  0.52148949  0.88513793  0.65303593    -0.24000
C2372       C  0.50641998  0.88510586  0.62958426     0.18200
C2373       C  0.99187293  0.86174731  0.62228499     0.15500
C2374       C  0.99243612  0.83893462  0.63887710    -0.19000
C2375       C  0.97716382  0.86171357  0.59853733    -0.20800
C2376       C  0.97786006  0.88402399  0.58170693    -0.13400
C2377       C  0.99290834  0.90710332  0.58837912     0.03300
C2378       C  0.50658870  0.90769797  0.61281721    -0.25500
H2379       H  0.53363541  0.86340889  0.68748121     0.08400
H2380       H  0.53311960  0.90260003  0.65872965     0.12000
H2381       H  0.98093659  0.82122432  0.63363000     0.11900
H2382       H  0.96561665  0.84424096  0.59267343     0.11700
H2383       H  0.96686718  0.88306001  0.56313644     0.12200
H2384       H  0.51852308  0.92510903  0.61805682     0.14100
C2385       C  0.00736352  0.65463693  0.66341260    -0.05900
C2386       C  0.00703520  0.62800357  0.67277751    -0.05800
C2387       C  0.00836950  0.60622658  0.65528208    -0.24000
C2388       C  0.00986829  0.61034884  0.62782825     0.18200
C2389       C  0.51017043  0.63689254  0.61796759     0.15500
C2390       C  0.50912584  0.65887202  0.63578498    -0.19000
C2391       C  0.51135677  0.64089475  0.59041889    -0.20800
C2392       C  0.51150653  0.61896356  0.57292472    -0.13400
C2393       C  0.01088732  0.59233611  0.58246776     0.03300
C2394       C  0.01027093  0.58833869  0.61014977    -0.25500
H2395       H  0.00559776  0.62381788  0.69382793     0.08400
H2396       H  0.00789457  0.58607754  0.66327684     0.12000
H2397       H  0.50961439  0.67914648  0.62809222     0.11900
H2398       H  0.51179781  0.66101249  0.58234376     0.11700
H2399       H  0.51200327  0.62294531  0.55178702     0.12200
H2400       H  0.00961100  0.56812933  0.61799385     0.14100
O2401       O  0.50705314  0.04328859  0.07509171    -0.80800
O2402       O  0.49993086  0.03635567  0.42050368    -0.82300
O2403       O  0.55102853  0.07059343  0.99610076    -0.79300
O2404       O  0.96315622  0.07669884  0.99678951    -0.77700
O2405       O  0.92898732  0.04614205  0.99650753    -0.79500
O2406       O  0.58092145  0.03582452  0.99580299    -0.80500
O2407       O  0.50519230  0.07042099  0.45055764    -0.81800
O2408       O  0.50892478  0.07386463  0.04125078    -0.82100
Eu2409     Eu  0.50557385  0.05146821  0.99754792     2.39200
O2410       O  0.97602071  0.02572754  0.47106127    -0.89600
O2411       O  0.53070836  0.02242174  0.02468105    -0.93200
C2412       C  0.50892286  0.06763295  0.06619772     1.01500
C2413       C  0.50226289  0.06138573  0.42656065     1.01300
C2414       C  0.57513126  0.06102785  0.99571187     1.01300
C2415       C  0.93801239  0.07040427  0.99606796     0.99100
H2416       H  0.54154789  0.03055815  0.45680149     0.28900
O2417       O  0.53022939  0.02057583  0.46875975    -1.02000
H2418       H  0.96726533  0.03887894  0.03683644     0.28900
O2419       O  0.97763842  0.02659061  0.02613613    -1.04500
O2420       O  0.49803917  0.44786777  0.42687680    -0.81700
O2421       O  0.50166515  0.45323661  0.07649566    -0.81300
O2422       O  0.57494058  0.99143094  0.44956344    -0.79700
O2423       O  0.92470826  0.00374842  0.45809066    -0.83100
O2424       O  0.92521832  0.00470847  0.04136491    -0.80900
O2425       O  0.57951668  0.99460242  0.03976997    -0.79600
O2426       O  0.54069572  0.41869636  0.99801772    -0.81100
O2427       O  0.95367237  0.42415511  0.00012076    -0.83000
O2428       O  0.57560378  0.44832885  0.99721762    -0.79700
O2429       O  0.92382445  0.45892961  0.99823966    -0.82400
O2430       O  0.54045932  0.99150764  0.41950177    -0.78100
O2431       O  0.54916899  0.99720783  0.07386224    -0.78200
O2432       O  0.95667408  0.00129742  0.07443173    -0.77800
O2433       O  0.95453439  0.99726307  0.42425822    -0.81300
O2434       O  0.49627275  0.41760837  0.46087477    -0.80700
O2435       O  0.49787716  0.42224872  0.04310447    -0.79100
Eu2436     Eu  0.49909439  0.99408817  0.44481800     2.39800
Eu2437     Eu  0.50294074  0.99800669  0.05426687     2.39600
Eu2438     Eu  0.55590176  0.99364863  0.99712922     2.38400
Eu2439     Eu  0.94835589  0.00088416  0.99954951     2.39900
Eu2440     Eu  0.49853491  0.44407584  0.00041398     2.39800
O2441       O  0.97338001  0.47340241  0.02744683    -0.93500
O2442       O  0.52667716  0.46628254  0.47233800    -0.92400
C2443       C  0.49675997  0.42372249  0.43606636     1.01700
C2444       C  0.49960007  0.42870359  0.06776438     1.00400
C2445       C  0.56560330  0.99151483  0.42540325     0.99800
C2446       C  0.93058600  0.00110781  0.43326817     1.01800
C2447       C  0.93208173  0.00394965  0.06594975     1.00700
C2448       C  0.57353643  0.99616938  0.06467234     0.99600
C2449       C  0.56595035  0.42432571  0.99678784     0.99600
C2450       C  0.92963172  0.43359831  0.99862636     1.02200
H2451       H  0.53871886  0.45769843  0.03787047     0.29600
O2452       O  0.52796249  0.46947528  0.02703885    -1.05700
H2453       H  0.95975795  0.45949835  0.46390358     0.31700
O2454       O  0.97217230  0.47031872  0.47406552    -1.08200
O2455       O  0.50486427  0.20080674  0.17533466    -0.80800
O2456       O  0.49669493  0.20835622  0.32912963    -0.82300
O2457       O  0.54549417  0.17073364  0.25590250    -0.79300
O2458       O  0.95453933  0.17518136  0.25366949    -0.77700
O2459       O  0.92424647  0.20950161  0.25004102    -0.79500
O2460       O  0.57769760  0.20336526  0.25673626    -0.80500
O2461       O  0.49802102  0.17429020  0.29852899    -0.81800
O2462       O  0.50115187  0.17077503  0.20957704    -0.82100
Eu2463     Eu  0.50066401  0.19377908  0.25289626     2.39200
O2464       O  0.97343122  0.22391503  0.27678541    -0.89600
O2465       O  0.52932012  0.21862960  0.22471030    -0.93200
C2466       C  0.50312395  0.17662290  0.18462078     1.01500
C2467       C  0.49693239  0.18326032  0.32276710     1.01300
C2468       C  0.57028809  0.17872966  0.25743115     1.01300
C2469       C  0.93028316  0.18447253  0.25254614     0.99100
H2470       H  0.53723453  0.21044666  0.29206793     0.28900
O2471       O  0.52676656  0.22148790  0.28016507    -1.02000
H2472       H  0.96497662  0.21051744  0.21216967     0.28900
O2473       O  0.97653835  0.22162781  0.22302520    -1.04500
O2474       O  0.49951948  0.29591762  0.32475316    -0.81700
O2475       O  0.50853161  0.29122005  0.17231566    -0.81300
O2476       O  0.57583213  0.24679139  0.29558655    -0.79700
O2477       O  0.92262582  0.25250095  0.28748518    -0.83100
O2478       O  0.92982962  0.25115632  0.20364803    -0.80900
O2479       O  0.58168653  0.24481544  0.21163605    -0.79600
O2480       O  0.55064068  0.32259647  0.25023474    -0.81100
O2481       O  0.96342000  0.32742434  0.24451138    -0.83000
O2482       O  0.58027774  0.28787224  0.25296497    -0.79700
O2483       O  0.92949146  0.29661961  0.24492202    -0.82400
O2484       O  0.54413307  0.24936280  0.32823954    -0.78100
O2485       O  0.55208738  0.24633628  0.17695206    -0.78200
O2486       O  0.96129964  0.24843600  0.17085249    -0.77800
O2487       O  0.95201225  0.25005530  0.32228233    -0.81300
O2488       O  0.50416179  0.32634936  0.29108499    -0.80700
O2489       O  0.50904514  0.32312836  0.20513597    -0.79100
Eu2490     Eu  0.49942362  0.25086087  0.30516972     2.39800
Eu2491     Eu  0.50529834  0.24663807  0.19481299     2.39600
Eu2492     Eu  0.55533137  0.24612649  0.25238224     2.38400
Eu2493     Eu  0.94954457  0.25151819  0.24744375     2.39900
Eu2494     Eu  0.50543701  0.30261239  0.24860622     2.39800
O2495       O  0.97857760  0.27620259  0.22028011    -0.93500
O2496       O  0.52931609  0.27541750  0.27818685    -0.92400
C2497       C  0.50183349  0.32005426  0.31581266     1.01700
C2498       C  0.50984004  0.31589530  0.18058047     1.00400
C2499       C  0.56884998  0.24774600  0.32009311     0.99800
C2500       C  0.92786667  0.25075746  0.31243253     1.01800
C2501       C  0.93665693  0.25013798  0.17907298     1.00700
C2502       C  0.57625078  0.24585798  0.18664163     0.99600
C2503       C  0.57468630  0.31298998  0.25177233     0.99600
C2504       C  0.93839024  0.32092179  0.24397918     1.02200
H2505       H  0.54449791  0.28401178  0.21254005     0.29600
O2506       O  0.53197985  0.27361712  0.22290658    -1.05700
H2507       H  0.96380884  0.29064169  0.28542168     0.31700
O2508       O  0.97537736  0.27858753  0.27563732    -1.08200
O2509       O  0.82760442  0.49312310  0.20411361    -0.80800
O2510       O  0.67600275  0.49805711  0.20895889    -0.82300
O2511       O  0.75053801  0.44826844  0.17692599    -0.79300
O2512       O  0.74913008  0.03729745  0.17172941    -0.77700
O2513       O  0.75173215  0.07160231  0.20199413    -0.79500
O2514       O  0.75007370  0.41822471  0.21124220    -0.80500
O2515       O  0.70596065  0.49506221  0.17464090    -0.81800
O2516       O  0.79563060  0.49426111  0.17154144    -0.82100
Eu2517     Eu  0.75130647  0.49450410  0.19483443     2.39200
O2518       O  0.72621771  0.02325410  0.22218290    -0.89600
O2519       O  0.77774618  0.46757980  0.22304722    -0.93200
C2520       C  0.82036496  0.49330884  0.17958942     1.01500
C2521       C  0.68179528  0.49661925  0.18399304     1.01300
C2522       C  0.75021417  0.42409210  0.18624644     1.01300
C2523       C  0.74955230  0.06246341  0.17801193     0.99100
H2524       H  0.71232029  0.45837738  0.21475335     0.28900
O2525       O  0.72430085  0.46979911  0.22473680    -1.02000
H2526       H  0.79119621  0.03296166  0.20895441     0.28900
O2527       O  0.77985298  0.02258197  0.22057301    -1.04500
O2528       O  0.67853818  0.50018242  0.29638797    -0.81700
O2529       O  0.83128019  0.49656231  0.28871025    -0.81300
O2530       O  0.70618001  0.42244084  0.25497625    -0.79700
O2531       O  0.70861123  0.07416044  0.24696936    -0.83100
O2532       O  0.79949552  0.07262510  0.24634952    -0.80900
O2533       O  0.79287551  0.41925974  0.25388764    -0.79600
O2534       O  0.75449700  0.45932586  0.32882180    -0.81100
O2535       O  0.75613065  0.04614186  0.32327765    -0.83000
O2536       O  0.75078715  0.42486929  0.29888035    -0.79700
O2537       O  0.75611970  0.07677981  0.28950305    -0.82400
O2538       O  0.67582650  0.45665637  0.25385373    -0.78100
O2539       O  0.82643957  0.45010125  0.24893843    -0.78200
O2540       O  0.83017182  0.03847595  0.24789394    -0.77800
O2541       O  0.67662298  0.04120483  0.24808026    -0.81300
O2542       O  0.71249727  0.50263476  0.32685775    -0.80700
O2543       O  0.80130968  0.50078624  0.32280242    -0.79100
Eu2544     Eu  0.69952734  0.49914179  0.25179686     2.39800
Eu2545     Eu  0.80646389  0.49560640  0.24733618     2.39600
Eu2546     Eu  0.75068885  0.44345646  0.25327616     2.38400
Eu2547     Eu  0.75391079  0.05225268  0.24694388     2.39900
Eu2548     Eu  0.75563723  0.50164039  0.30360475     2.39800
O2549       O  0.78119681  0.02534466  0.27437137    -0.93500
O2550       O  0.72617490  0.47316837  0.28005026    -0.92400
C2551       C  0.68741131  0.50130924  0.32054420     1.01700
C2552       C  0.82543213  0.49849891  0.31351356     1.00400
C2553       C  0.68195909  0.43161732  0.25475868     0.99800
C2554       C  0.68388791  0.06588293  0.24685595     1.01800
C2555       C  0.82389930  0.06362560  0.24718732     1.00700
C2556       C  0.81774429  0.42579908  0.25169566     0.99600
C2557       C  0.75235361  0.43415785  0.32288461     0.99600
C2558       C  0.75648406  0.07045870  0.31441932     1.02200
H2559       H  0.79136241  0.46041730  0.28859030     0.29600
O2560       O  0.78008906  0.47129246  0.27733569    -1.05700
H2561       H  0.71637179  0.03880292  0.28693634     0.31700
O2562       O  0.72722272  0.02693107  0.27623723    -1.08200
O2563       O  0.70452238  0.17464745  0.50528565    -0.80800
O2564       O  0.71404067  0.32764056  0.49384663    -0.82300
O2565       O  0.67685180  0.25254494  0.04324868    -0.79300
O2566       O  0.67375980  0.25152346  0.46145896    -0.77700
O2567       O  0.70332370  0.24570845  0.42718840    -0.79500
O2568       O  0.70857373  0.25204135  0.07614805    -0.80500
O2569       O  0.68022316  0.29712023  0.49862959    -0.81800
O2570       O  0.67416281  0.20894607  0.50274693    -0.82100
Eu2571     Eu  0.69927434  0.25170896  0.50255506     2.39200
O2572       O  0.72621075  0.27546670  0.47238948    -0.89600
O2573       O  0.72384680  0.22352024  0.02948487    -0.93200
C2574       C  0.68025059  0.18373138  0.50365342     1.01500
C2575       C  0.68903079  0.32122651  0.49517970     1.01300
C2576       C  0.68386665  0.25273158  0.06792417     1.01300
C2577       C  0.67917932  0.24849479  0.43664173     0.99100
H2578       H  0.71685140  0.28972269  0.03625900     0.28900
O2579       O  0.72747057  0.27738965  0.02581506    -1.02000
H2580       H  0.71121201  0.20998529  0.46612432     0.28900
O2581       O  0.72342891  0.22119109  0.47608229    -1.04500
O2582       O  0.80084985  0.32286109  0.49676236    -0.81700
O2583       O  0.79377739  0.17135300  0.50146545    -0.81300
O2584       O  0.75589660  0.29564514  0.07386933    -0.79700
O2585       O  0.75180578  0.28745285  0.42097881    -0.83100
O2586       O  0.74942171  0.19878142  0.42740071    -0.80900
O2587       O  0.75266648  0.20893309  0.07989155    -0.79600
O2588       O  0.83038850  0.24501775  0.03965568    -0.81100
O2589       O  0.82614288  0.24299400  0.45409710    -0.83000
O2590       O  0.80044963  0.25106461  0.07354919    -0.79700
O2591       O  0.79390921  0.24193849  0.42173245    -0.82400
O2592       O  0.75708024  0.32571669  0.03964606    -0.78100
O2593       O  0.74851029  0.17443647  0.05008332    -0.78200
O2594       O  0.74850370  0.16879058  0.46175981    -0.77800
O2595       O  0.75654963  0.32165358  0.45108481    -0.81300
O2596       O  0.83123681  0.28864229  0.49879363    -0.80700
O2597       O  0.82796783  0.20179162  0.49896888    -0.79100
Eu2598     Eu  0.75604618  0.30282886  0.49659622     2.39800
Eu2599     Eu  0.75004252  0.19426608  0.50416825     2.39600
Eu2600     Eu  0.75372141  0.25054891  0.05446553     2.38400
Eu2601     Eu  0.75022378  0.24493885  0.44562717     2.39900
Eu2602     Eu  0.80673985  0.24605443  0.49857248     2.39800
O2603       O  0.77677643  0.21889559  0.47451557    -0.93500
O2604       O  0.78145933  0.27377464  0.02460795    -0.92400
C2605       C  0.82501835  0.31374096  0.49829328     1.01700
C2606       C  0.81893154  0.17757865  0.50001130     1.00400
C2607       C  0.75681022  0.31977341  0.06469409     0.99800
C2608       C  0.75454480  0.31251304  0.42705186     1.01800
C2609       C  0.74893867  0.17459118  0.43667301     1.00700
C2610       C  0.75045850  0.18382970  0.07407070     0.99600
C2611       C  0.82471469  0.24867928  0.06423852     0.99600
C2612       C  0.81871679  0.24172131  0.42956285     1.02200
H2613       H  0.78943392  0.20884910  0.03986283     0.29600
O2614       O  0.77845946  0.21989942  0.02847739    -1.05700
H2615       H  0.79186135  0.28245971  0.45818626     0.31700
O2616       O  0.78036562  0.27252417  0.47004351    -1.08200
C2617       C  0.75049638  0.16460924  0.09662054    -0.05900
C2618       C  0.75888149  0.17291597  0.12211734    -0.05800
C2619       C  0.75997433  0.15474092  0.14319928    -0.24000
C2620       C  0.75256709  0.12789617  0.13929822     0.18200
C2621       C  0.74349814  0.11944963  0.11399645     0.15500
C2622       C  0.74252611  0.13780193  0.09287033    -0.19000
C2623       C  0.73588637  0.09266297  0.11013245    -0.20800
C2624       C  0.73782770  0.07424417  0.13093001    -0.13400
C2625       C  0.74725290  0.08225326  0.15610931     0.03300
C2626       C  0.75432939  0.10930772  0.16017685    -0.25500
H2627       H  0.76508624  0.19342688  0.12572353     0.08400
H2628       H  0.76686925  0.16163163  0.16248273     0.12000
H2629       H  0.73571173  0.13113861  0.07348131     0.11900
H2630       H  0.72865402  0.08588293  0.09093758     0.11700
H2631       H  0.73185707  0.05367406  0.12727503     0.12200
H2632       H  0.76159757  0.11584925  0.17944980     0.14100
C2633       C  0.75027872  0.40146499  0.16686503    -0.05900
C2634       C  0.74768842  0.37474052  0.17551871    -0.05800
C2635       C  0.74862620  0.35343744  0.15735092    -0.24000
C2636       C  0.75228886  0.35837723  0.13015161     0.18200
C2637       C  0.75471976  0.38508203  0.12120489     0.15500
C2638       C  0.75354724  0.40637855  0.13951388    -0.19000
C2639       C  0.75847112  0.39008872  0.09406393    -0.20800
C2640       C  0.75959222  0.36888782  0.07585678    -0.13400
C2641       C  0.75693240  0.34217013  0.08435568     0.03300
C2642       C  0.75348357  0.33711541  0.11173807    -0.25500
H2643       H  0.74502802  0.37022418  0.19639135     0.08400
H2644       H  0.74662879  0.33309186  0.16460373     0.12000
H2645       H  0.75556859  0.42677901  0.13241607     0.11900
H2646       H  0.76046442  0.41045369  0.08687442     0.11700
H2647       H  0.76236298  0.37349710  0.05502479     0.12200
H2648       H  0.75138728  0.31669011  0.11875467     0.14100
C2649       C  0.75153608  0.41459714  0.34520345    -0.05900
C2650       C  0.74503439  0.42315831  0.37110322    -0.05800
C2651       C  0.74440154  0.40496530  0.39222346    -0.24000
C2652       C  0.75042089  0.37780940  0.38797593     0.18200
C2653       C  0.75679705  0.36886542  0.36205374     0.15500
C2654       C  0.75719430  0.38723410  0.34085647    -0.19000
C2655       C  0.76268201  0.34168112  0.35778031    -0.20800
C2656       C  0.76194821  0.32348147  0.37888357    -0.13400
C2657       C  0.75558010  0.33208774  0.40480156     0.03300
C2658       C  0.75006118  0.35945643  0.40918191    -0.25500
H2659       H  0.74023937  0.44398174  0.37505044     0.08400
H2660       H  0.73924534  0.41216725  0.41191119     0.12000
H2661       H  0.76222727  0.38025697  0.32105034     0.11900
H2662       H  0.76775025  0.33445420  0.33807908     0.11700
H2663       H  0.76655568  0.30261942  0.37490932     0.12200
H2664       H  0.74506709  0.36642763  0.42900031     0.14100
C2665       C  0.75691743  0.09268994  0.33427887    -0.05900
C2666       C  0.76245376  0.11914772  0.32630828    -0.05800
C2667       C  0.76204675  0.14025211  0.34470828    -0.24000
C2668       C  0.75600122  0.13544126  0.37151007     0.18200
C2669       C  0.75071295  0.10896562  0.37990551     0.15500
C2670       C  0.75125235  0.08778196  0.36130541    -0.19000
C2671       C  0.74488066  0.10418105  0.40676711    -0.20800
C2672       C  0.74429790  0.12539223  0.42513065    -0.13400
C2673       C  0.74929382  0.15195659  0.41704653     0.03300
C2674       C  0.75514866  0.15669052  0.39001629    -0.25500
H2675       H  0.76710105  0.12360550  0.30576610     0.08400
H2676       H  0.76634214  0.16040177  0.33792226     0.12000
H2677       H  0.74688865  0.06755596  0.36785505     0.11900
H2678       H  0.74078609  0.08400322  0.41360612     0.11700
H2679       H  0.73977796  0.12096394  0.44569998     0.12200
H2680       H  0.75929128  0.17691305  0.38333645     0.14100
C2681       C  0.90772346  0.16506034  0.25413452    -0.05900
C2682       C  0.88213610  0.17331475  0.26281848    -0.05800
C2683       C  0.86074027  0.15509245  0.26384614    -0.24000
C2684       C  0.86437541  0.12833876  0.25581877     0.18200
C2685       C  0.89008044  0.11981415  0.24738032     0.15500
C2686       C  0.91154842  0.13811690  0.24675211    -0.19000
C2687       C  0.89385617  0.09314744  0.23938386    -0.20800
C2688       C  0.87237008  0.07510582  0.23943987    -0.13400
C2689       C  0.84650760  0.08328231  0.24736941     0.03300
C2690       C  0.84274529  0.11005077  0.25574302    -0.25500
H2691       H  0.87867852  0.19387983  0.26894469     0.08400
H2692       H  0.84127739  0.16200834  0.27061664     0.12000
H2693       H  0.93111620  0.13149230  0.23995187     0.11900
H2694       H  0.91342748  0.08625601  0.23288727     0.11700
H2695       H  0.87598123  0.05470580  0.23290757     0.12200
H2696       H  0.82306721  0.11662322  0.26225504     0.14100
C2697       C  0.91859429  0.34294412  0.24271391    -0.05900
C2698       C  0.92583262  0.36793103  0.23200818    -0.05800
C2699       C  0.90747145  0.38907981  0.23149735    -0.24000
C2700       C  0.88165359  0.38571549  0.24197263     0.18200
C2701       C  0.87414562  0.36065762  0.25277696     0.15500
C2702       C  0.89259383  0.33940546  0.25294473    -0.19000
C2703       C  0.84835711  0.35732569  0.26333480    -0.20800
C2704       C  0.83013049  0.37858276  0.26305716    -0.13400
C2705       C  0.83740900  0.40362307  0.25236489     0.03300
C2706       C  0.86327752  0.40702420  0.24187178    -0.25500
H2707       H  0.94571712  0.37109542  0.22390043     0.08400
H2708       H  0.91352277  0.40811402  0.22306411     0.12000
H2709       H  0.88688762  0.32030039  0.26149640     0.11900
H2710       H  0.84227650  0.33830192  0.27178129     0.11700
H2711       H  0.81032992  0.37543236  0.27138156     0.12200
H2712       H  0.86902458  0.42613070  0.23336242     0.14100
C2713       C  0.66160350  0.08539392  0.24501166    -0.05900
C2714       C  0.63898703  0.07887192  0.22948623    -0.05800
C2715       C  0.61637511  0.09543169  0.22922913    -0.24000
C2716       C  0.61570287  0.11872306  0.24481626     0.18200
C2717       C  0.63841736  0.12561542  0.26040095     0.15500
C2718       C  0.66131763  0.10898197  0.26029578    -0.19000
C2719       C  0.63775261  0.14899558  0.27587369    -0.20800
C2720       C  0.61512274  0.16560026  0.27549678    -0.13400
C2721       C  0.59245722  0.15901935  0.25998446     0.03300
C2722       C  0.59279321  0.13532252  0.24488621    -0.25500
H2723       H  0.63875306  0.06070326  0.21760667     0.08400
H2724       H  0.59930053  0.08985374  0.21704802     0.12000
H2725       H  0.67848115  0.11389955  0.27265499     0.11900
H2726       H  0.65486301  0.15464861  0.28797836     0.11700
H2727       H  0.61542915  0.18389235  0.28718457     0.12200
H2728       H  0.57568755  0.13036112  0.23247186     0.14100
C2729       C  0.65934978  0.41247279  0.25512767    -0.05900
C2730       C  0.63285137  0.42220370  0.25661607    -0.05800
C2731       C  0.61112165  0.40469914  0.25609317    -0.24000
C2732       C  0.61539178  0.37707396  0.25417325     0.18200
C2733       C  0.64189620  0.36693842  0.25280937     0.15500
C2734       C  0.66374156  0.38468506  0.25327668    -0.19000
C2735       C  0.64604903  0.33923725  0.25099458    -0.20800
C2736       C  0.62416330  0.32178624  0.25067895    -0.13400
C2737       C  0.59768759  0.33170831  0.25204451     0.03300
C2738       C  0.59351325  0.35946857  0.25369355    -0.25500
H2739       H  0.62877212  0.44348955  0.25808822     0.08400
H2740       H  0.59095794  0.41279960  0.25718690     0.12000
H2741       H  0.68402330  0.37687341  0.25201202     0.11900
H2742       H  0.66618388  0.33105977  0.24988438     0.11700
H2743       H  0.62805142  0.30045625  0.24928004     0.12200
H2744       H  0.57327844  0.36741937  0.25479553     0.14100
C2745       C  0.84837841  0.25027286  0.08222784    -0.05900
C2746       C  0.87460172  0.24998155  0.07142183    -0.05800
C2747       C  0.89727453  0.25031596  0.08779313    -0.24000
C2748       C  0.89437273  0.25101899  0.11542191     0.18200
C2749       C  0.86818660  0.25214554  0.12639722     0.15500
C2750       C  0.84544046  0.25182781  0.10984328    -0.19000
C2751       C  0.86504110  0.25320157  0.15387169    -0.20800
C2752       C  0.88738974  0.25264925  0.17039952    -0.13400
C2753       C  0.91372157  0.25103307  0.16003624     0.03300
C2754       C  0.91706579  0.25040661  0.13228291    -0.25500
H2755       H  0.87775977  0.24925381  0.05013969     0.08400
H2756       H  0.91704230  0.24975692  0.07882015     0.12000
H2757       H  0.82551942  0.25234526  0.11850071     0.11900
H2758       H  0.84521294  0.25423517  0.16267581     0.11700
H2759       H  0.88375682  0.25335476  0.19159797     0.12200
H2760       H  0.93707107  0.24931729  0.12387422     0.14100
C2761       C  0.59953381  0.24713964  0.16807731    -0.05900
C2762       C  0.62598803  0.24340246  0.17745421    -0.05800
C2763       C  0.64791686  0.24428165  0.16005139    -0.24000
C2764       C  0.64396091  0.24908598  0.13288443     0.18200
C2765       C  0.61760730  0.25369981  0.12343528     0.15500
C2766       C  0.59567241  0.25273133  0.14098986    -0.19000
C2767       C  0.61350567  0.25888771  0.09644743    -0.20800
C2768       C  0.63511359  0.25885454  0.07881810    -0.13400
C2769       C  0.66150871  0.25373483  0.08766391     0.03300
C2770       C  0.66577524  0.24910023  0.11496511    -0.25500
H2771       H  0.62979654  0.23947135  0.19827537     0.08400
H2772       H  0.66794175  0.24097350  0.16782123     0.12000
H2773       H  0.57557361  0.25622198  0.13347298     0.11900
H2774       H  0.59349177  0.26269943  0.08887061     0.11700
H2775       H  0.63099039  0.26275836  0.05805390     0.12200
H2776       H  0.68588350  0.24510487  0.12219385     0.14100
C2777       C  0.65563076  0.24792470  0.41827183    -0.05900
C2778       C  0.62926481  0.24979002  0.42849653    -0.05800
C2779       C  0.60689332  0.24935486  0.41166589    -0.24000
C2780       C  0.61025865  0.24735266  0.38413419     0.18200
C2781       C  0.63656616  0.24522842  0.37365437     0.15500
C2782       C  0.65897959  0.24535358  0.39068894    -0.19000
C2783       C  0.64013909  0.24343723  0.34621214    -0.20800
C2784       C  0.61805841  0.24426006  0.32927716    -0.13400
C2785       C  0.59161931  0.24663637  0.33925459     0.03300
C2786       C  0.58788282  0.24787916  0.36690502    -0.25500
H2787       H  0.62579003  0.25163360  0.44966114     0.08400
H2788       H  0.58697657  0.25090488  0.42019589     0.12000
H2789       H  0.67900524  0.24377714  0.38240580     0.11900
H2790       H  0.66008136  0.24173008  0.33776352     0.11700
H2791       H  0.62194511  0.24310179  0.30813192     0.12200
H2792       H  0.56777700  0.24959845  0.37496410     0.14100
C2793       C  0.90424418  0.24895820  0.33058680    -0.05900
C2794       C  0.87786290  0.25217056  0.32070996    -0.05800
C2795       C  0.85556688  0.25060167  0.33762913    -0.24000
C2796       C  0.85905393  0.24558604  0.36481632     0.18200
C2797       C  0.88535412  0.24151851  0.37471023     0.15500
C2798       C  0.90764383  0.24324239  0.35766654    -0.19000
C2799       C  0.88909634  0.23607417  0.40165563    -0.20800
C2800       C  0.86724425  0.23545995  0.41887134    -0.13400
C2801       C  0.84091787  0.24031652  0.40972925     0.03300
C2802       C  0.83689942  0.24495664  0.38237690    -0.25500
H2803       H  0.87437167  0.25617858  0.29984943     0.08400
H2804       H  0.83563831  0.25353003  0.32947126     0.12000
H2805       H  0.92766214  0.24018912  0.36557099     0.11900
H2806       H  0.90904478  0.23263334  0.40956112     0.11700
H2807       H  0.87118650  0.23147131  0.43965365     0.12200
H2808       H  0.81682814  0.24871362  0.37491182     0.14100
C2809       C  0.90733774  0.41389670  0.99664504    -0.05900
C2810       C  0.88245313  0.42145888  0.98579618    -0.05800
C2811       C  0.86153329  0.40287175  0.98345343    -0.24000
C2812       C  0.86494755  0.37640331  0.99222696     0.18200
C2813       C  0.88989464  0.36849509  0.00307726     0.15500
C2814       C  0.90992707  0.38938212  0.50803615    -0.19000
C2815       C  0.89368524  0.34360898  0.51071825    -0.20800
C2816       C  0.87291533  0.32507647  0.50802474    -0.13400
C2817       C  0.84720316  0.33128631  0.99957353     0.03300
C2818       C  0.84378008  0.35779240  0.99055387    -0.25500
H2819       H  0.87922583  0.44174436  0.97884312     0.08400
H2820       H  0.84260037  0.40927155  0.97495079     0.12000
H2821       H  0.92969273  0.38256037  0.51403125     0.11900
H2822       H  0.91336965  0.33667724  0.51681412     0.11700
H2823       H  0.87703036  0.30421886  0.51238170     0.12200
H2824       H  0.82469399  0.36392986  0.98216157     0.14100
C2825       C  0.83507240  0.15131492  0.00132570    -0.05900
C2826       C  0.82961216  0.12864030  0.50272680    -0.05800
C2827       C  0.84776427  0.10739265  0.50387286    -0.24000
C2828       C  0.87538713  0.11217213  0.50207981     0.18200
C2829       C  0.88071626  0.13499606  0.99481793     0.15500
C2830       C  0.86217709  0.15612474  0.99522748    -0.19000
C2831       C  0.90772324  0.13982123  0.98875005    -0.20800
C2832       C  0.92624346  0.11879153  0.98885747    -0.13400
C2833       C  0.91809826  0.09250752  0.99496723     0.03300
C2834       C  0.89359383  0.09072957  0.50279401    -0.25500
H2835       H  0.80839316  0.12415153  0.50415810     0.08400
H2836       H  0.84014815  0.08716142  0.50604428     0.12000
H2837       H  0.86889587  0.17627561  0.99067263     0.11900
H2838       H  0.91456872  0.15989602  0.98409540     0.11700
H2839       H  0.94700925  0.12315483  0.98420362     0.12200
H2840       H  0.88603760  0.07047961  0.50508762     0.14100
C2841       C  0.66752626  0.34135841  0.99640961    -0.05900
C2842       C  0.67746861  0.36973074  0.48891404    -0.05800
C2843       C  0.65881351  0.39058702  0.48840999    -0.24000
C2844       C  0.63143858  0.38519490  0.49181678     0.18200
C2845       C  0.62152499  0.35819993  0.99336992     0.15500
C2846       C  0.63973269  0.33664173  0.99385642    -0.19000
C2847       C  0.59384389  0.35367251  0.99095173    -0.20800
C2848       C  0.57583925  0.37518142  0.99166852    -0.13400
C2849       C  0.58515535  0.40166945  0.99470483    -0.02300
C2850       C  0.61279935  0.40618178  0.49266449    -0.25500
H2851       H  0.69853562  0.37459102  0.48665349     0.08400
H2852       H  0.66584531  0.41097879  0.48579766     0.12000
H2853       H  0.63224094  0.31628770  0.99223485     0.11900
H2854       H  0.58607561  0.33347220  0.98891107     0.11700
H2855       H  0.55455907  0.37098747  0.99011962     0.12200
H2856       H  0.61983565  0.42664249  0.49059839     0.14100
C2857       C  0.65691558  0.16324361  0.99812270    -0.05900
C2858       C  0.63207729  0.17192505  0.49379951    -0.05800
C2859       C  0.61134690  0.15320001  0.49078971    -0.24000
C2860       C  0.61590959  0.12591982  0.49582506     0.18200
C2861       C  0.64063923  0.11706100  0.99904662     0.15500
C2862       C  0.66159943  0.13565625  0.00185456    -0.19000
C2863       C  0.64524806  0.08963223  0.00298299    -0.20800
C2864       C  0.62405527  0.07138153  0.00123020    -0.13400
C2865       C  0.59781990  0.08022064  0.99559004     0.03300
C2866       C  0.59507544  0.10704852  0.49298752    -0.25500
H2867       H  0.62788877  0.19278105  0.48949364     0.08400
H2868       H  0.59171280  0.16008104  0.48448754     0.12000
H2869       H  0.68149834  0.12859972  0.00708624     0.11900
H2870       H  0.66515206  0.08233622  0.00783227     0.11700
H2871       H  0.62814883  0.05038838  0.00494942     0.12200
H2872       H  0.57536706  0.11378678  0.48674736     0.14100
C2873       C  0.84713891  0.99844887  0.33346430    -0.05900
C2874       C  0.87356036  0.99469418  0.32411411    -0.05800
C2875       C  0.89524858  0.99493630  0.34162649    -0.24000
C2876       C  0.89094643  0.99887865  0.36883175     0.18200
C2877       C  0.86571100  0.50090180  0.37736781     0.15500
C2878       C  0.84400042  0.50122218  0.35966731    -0.19000
C2879       C  0.86135085  0.50431686  0.40459295    -0.20800
C2880       C  0.88288345  0.50386495  0.42225319    -0.13400
C2881       C  0.90809159  0.00224531  0.41406478     0.03300
C2882       C  0.91257907  0.99880425  0.38667291    -0.25500
H2883       H  0.87757807  0.99150958  0.30318893     0.08400
H2884       H  0.91533897  0.99194237  0.33390052     0.12000
H2885       H  0.82384175  0.50421738  0.36723406     0.11900
H2886       H  0.84123943  0.50724419  0.41228082     0.11700
H2887       H  0.87869614  0.50642221  0.44321663     0.12200
H2888       H  0.93278077  0.99574801  0.37923842     0.14100
C2889       C  0.58469002  0.99286258  0.40258987    -0.05900
C2890       C  0.57504183  0.99550533  0.37629958    -0.05800
C2891       C  0.59275749  0.99830093  0.35487351    -0.24000
C2892       C  0.62056919  0.99845219  0.35916462     0.18200
C2893       C  0.63184857  0.49548412  0.38610974     0.15500
C2894       C  0.61400137  0.49290230  0.40761217    -0.19000
C2895       C  0.65956570  0.49402174  0.39028588    -0.20800
C2896       C  0.67731369  0.49640242  0.36900001    -0.13400
C2897       C  0.66664160  0.00048648  0.34234136     0.03300
C2898       C  0.63870368  0.00086145  0.33776172    -0.25500
H2899       H  0.55368953  0.99571540  0.37221011     0.08400
H2900       H  0.58468674  0.00035205  0.33497091     0.12000
H2901       H  0.62185848  0.48987948  0.42747169     0.11900
H2902       H  0.66757363  0.49085142  0.41005701     0.11700
H2903       H  0.69860373  0.49478489  0.37306821     0.12200
H2904       H  0.63108638  0.00262530  0.31765353     0.14100
C2905       C  0.59671608  0.99696980  0.08357304    -0.05900
C2906       C  0.62301731  0.00093050  0.07387705    -0.05800
C2907       C  0.64514857  0.00129589  0.09104999    -0.24000
C2908       C  0.64163351  0.99767110  0.11842960     0.18200
C2909       C  0.61401708  0.49662658  0.13033078     0.15500
C2910       C  0.59191404  0.49581152  0.11281756    -0.19000
C2911       C  0.61052828  0.49191127  0.15752188    -0.20800
C2912       C  0.63258477  0.49194277  0.17468931    -0.13400
C2913       C  0.66005284  0.99439414  0.16349047     0.03300
C2914       C  0.66383208  0.99784602  0.13593396    -0.25500
H2915       H  0.62660073  0.00383328  0.05285528     0.08400
H2916       H  0.66503024  0.00436648  0.08286732     0.12000
H2917       H  0.57204107  0.49153476  0.12047899     0.11900
H2918       H  0.59073581  0.48794428  0.16551986     0.11700
H2919       H  0.62909671  0.48793915  0.19554463     0.12200
H2920       H  0.68388495  0.00091938  0.12814770     0.14100
C2921       C  0.84400680  0.99367497  0.16176754    -0.05900
C2922       C  0.86761361  0.48174215  0.16824566    -0.05800
C2923       C  0.88985107  0.48221391  0.15150810    -0.24000
C2924       C  0.88782946  0.49337753  0.12617895     0.18200
C2925       C  0.86435356  0.00596516  0.11937981     0.15500
C2926       C  0.84189801  0.00537861  0.13646117    -0.19000
C2927       C  0.86257371  0.01749986  0.09410451    -0.20800
C2928       C  0.88481313  0.01733144  0.07713871    -0.13400
C2929       C  0.90948815  0.00592106  0.08514809     0.03300
C2930       C  0.91043326  0.49421370  0.10949635    -0.25500
H2931       H  0.87002878  0.47308275  0.18781981     0.08400
H2932       H  0.90871340  0.47398450  0.15848967     0.12000
H2933       H  0.82306756  0.01432958  0.13028303     0.11900
H2934       H  0.84391882  0.02635300  0.08731888     0.11700
H2935       H  0.88261286  0.02606282  0.05756660     0.12200
H2936       H  0.92938133  0.48593490  0.11621181     0.14100
C2937       C  0.50115532  0.08088972  0.40425278    -0.05900
C2938       C  0.99915750  0.07173051  0.37781547    -0.05800
C2939       C  0.99717977  0.08980687  0.35672446    -0.24000
C2940       C  0.99736471  0.11749431  0.36153894     0.18200
C2941       C  0.49961356  0.12698971  0.38794061     0.15500
C2942       C  0.50136848  0.10869779  0.40910010    -0.19000
C2943       C  0.50012023  0.15465452  0.39276040    -0.20800
C2944       C  0.49878657  0.17275115  0.37163675    -0.13400
C2945       C  0.49678689  0.16365015  0.34512429     0.03300
C2946       C  0.99575297  0.13581128  0.34035248    -0.25500
H2947       H  0.99900114  0.05047776  0.37330666     0.08400
H2948       H  0.99560150  0.08210490  0.33662043     0.12000
H2949       H  0.50280836  0.11616423  0.42930699     0.11900
H2950       H  0.50183484  0.16232619  0.41286920     0.11700
H2951       H  0.49970245  0.19397933  0.37615228     0.12200
H2952       H  0.99417227  0.12835954  0.32015544     0.14100
C2953       C  0.50219590  0.34217707  0.33526249    -0.05900
C2954       C  0.51209160  0.36749312  0.32789652    -0.05800
C2955       C  0.51314358  0.38838059  0.34629528    -0.24000
C2956       C  0.50414237  0.38436387  0.37230732     0.18200
C2957       C  0.99416734  0.35896083  0.37997303     0.15500
C2958       C  0.99317704  0.33803484  0.36139494    -0.19000
C2959       C  0.98538302  0.35498010  0.40610343    -0.20800
C2960       C  0.98638885  0.37601601  0.42443012    -0.13400
C2961       C  0.49592820  0.40142034  0.41683173     0.03300
C2962       C  0.50485154  0.40538995  0.39071587    -0.25500
H2963       H  0.51936072  0.37110980  0.30794531     0.08400
H2964       H  0.52098750  0.40766937  0.34017535     0.12000
H2965       H  0.98536711  0.31864298  0.36727791     0.11900
H2966       H  0.97772379  0.33565608  0.41234540     0.11700
H2967       H  0.97937734  0.37249228  0.44448988     0.12200
H2968       H  0.51253679  0.42479979  0.38472875     0.14100
C2969       C  0.51229029  0.33826412  0.16131051    -0.05900
C2970       C  0.02232862  0.36312788  0.17025722    -0.05800
C2971       C  0.02202022  0.38568626  0.15394718    -0.24000
C2972       C  0.01145589  0.38406857  0.12826154     0.18200
C2973       C  0.50203143  0.35904253  0.11867648     0.15500
C2974       C  0.50266204  0.33620695  0.13514718    -0.19000
C2975       C  0.49133258  0.35749066  0.09304161    -0.20800
C2976       C  0.49003060  0.38035503  0.07715376    -0.13400
C2977       C  0.49950699  0.40545961  0.08633932     0.03300
C2978       C  0.01012028  0.40710849  0.11210368    -0.25500
H2979       H  0.03015621  0.36534245  0.19023636     0.08400
H2980       H  0.02960194  0.40454070  0.16164772     0.12000
H2981       H  0.49465258  0.31727863  0.12803047     0.11900
H2982       H  0.48381583  0.33862432  0.08528658     0.11700
H2983       H  0.48154882  0.37826151  0.05742736     0.12200
H2984       H  0.01778649  0.42610245  0.11939479     0.14100
C2985       C  0.50381350  0.15355038  0.16563761    -0.05900
C2986       C  0.50080320  0.12715421  0.17516064    -0.05800
C2987       C  0.50212840  0.10510654  0.15796212    -0.24000
C2988       C  0.50637466  0.10879474  0.13069667     0.18200
C2989       C  0.00953967  0.13514545  0.12075747     0.15500
C2990       C  0.00820645  0.15730887  0.13821930    -0.19000
C2991       C  0.01387870  0.13886866  0.09352574    -0.20800
C2992       C  0.01435960  0.11689490  0.07617288    -0.13400
C2993       C  0.51052979  0.09046508  0.08558295     0.03300
C2994       C  0.50701064  0.08664753  0.11312541    -0.25500
H2995       H  0.49744735  0.12339444  0.19607973     0.08400
H2996       H  0.49969047  0.08513114  0.16602343     0.12000
H2997       H  0.01071270  0.17741199  0.13046273     0.11900
H2998       H  0.01656866  0.15884827  0.08554041     0.11700
H2999       H  0.01738304  0.12072601  0.05522022     0.12200
H3000       H  0.50410613  0.06658477  0.12083538     0.14100
O3001       O  0.50881453  0.04520994  0.57234453    -0.80800
O3002       O  0.50167375  0.03739634  0.92216614    -0.82300
O3003       O  0.55287300  0.06941267  0.49502576    -0.79300
O3004       O  0.96562658  0.07758925  0.49761955    -0.77700
O3005       O  0.93051160  0.04836781  0.50083453    -0.79500
O3006       O  0.58271021  0.03467634  0.49695045    -0.80500
O3007       O  0.50437913  0.07156629  0.95246183    -0.81800
O3008       O  0.51062285  0.07523882  0.53801061    -0.82100
Eu3009     Eu  0.50698219  0.05097971  0.49587189     2.39200
O3010       O  0.97631445  0.02542093  0.97151230    -0.89600
O3011       O  0.53195653  0.02211442  0.52328866    -0.93200
C3012       C  0.51052632  0.06942115  0.56297816     1.01500
C3013       C  0.50286845  0.06235220  0.92838334     1.01300
C3014       C  0.57698948  0.05996593  0.49645277     1.01300
C3015       C  0.94035294  0.07229637  0.49950959     0.99100
H3016       H  0.54144553  0.03194902  0.95855147     0.28900
O3017       O  0.52990825  0.02182983  0.97019150    -1.02000
H3018       H  0.96942967  0.03992371  0.53684780     0.28900
O3019       O  0.97927123  0.02738486  0.52594981    -1.04500
O3020       O  0.49836646  0.45046576  0.92470936    -0.81700
O3021       O  0.50326065  0.45355214  0.57762721    -0.81300
O3022       O  0.57690182  0.99148066  0.95255968    -0.79700
O3023       O  0.92505458  0.00164726  0.95720541    -0.83100
O3024       O  0.92840439  0.00414221  0.54460475    -0.80900
O3025       O  0.58047603  0.99345425  0.53901002    -0.79600
O3026       O  0.54072052  0.41767333  0.50028601    -0.81100
O3027       O  0.95220830  0.42593041  0.50388907    -0.83000
O3028       O  0.57540049  0.44737405  0.49617754    -0.79700
O3029       O  0.92255573  0.46085331  0.50156730    -0.82400
O3030       O  0.54324038  0.99190649  0.92162202    -0.78100
O3031       O  0.55049260  0.99710882  0.57332257    -0.78200
O3032       O  0.96036843  0.00126290  0.57721569    -0.77800
O3033       O  0.95573072  0.99820499  0.92368380    -0.81300
O3034       O  0.49605466  0.41986723  0.95837099    -0.80700
O3035       O  0.49816179  0.42178876  0.54519574    -0.79100
Eu3036     Eu  0.50029538  0.99503727  0.94485261     2.39800
Eu3037     Eu  0.50458915  0.99870252  0.55396005     2.39600
Eu3038     Eu  0.55643424  0.99273885  0.49598729     2.38400
Eu3039     Eu  0.94850773  0.00241143  0.50066163     2.39900
Eu3040     Eu  0.49848437  0.44320342  0.50191805     2.39800
O3041       O  0.97440541  0.47353619  0.52835318    -0.93500
O3042       O  0.52739899  0.46748166  0.97217592    -0.92400
C3043       C  0.49658539  0.42621547  0.93360086     1.01700
C3044       C  0.50033687  0.42880411  0.56972156     1.00400
C3045       C  0.56822373  0.99105705  0.92830821     0.99800
C3046       C  0.93143650  0.00027563  0.93248112     1.01800
C3047       C  0.93571190  0.00337729  0.56912721     1.00700
C3048       C  0.57471658  0.99531061  0.56403674     0.99600
C3049       C  0.56588225  0.42337530  0.49776596     0.99600
C3050       C  0.92817347  0.43567480  0.50290157     1.02200
H3051       H  0.54003944  0.45723083  0.53744799     0.29600
O3052       O  0.52921776  0.46895339  0.52661903    -1.05700
H3053       H  0.96048187  0.46100469  0.96198466     0.31700
O3054       O  0.97257593  0.47156257  0.97276660    -1.08200
O3055       O  0.50600663  0.20104809  0.67418214    -0.80800
O3056       O  0.49989421  0.20519716  0.82791265    -0.82300
O3057       O  0.54189580  0.16517283  0.75600709    -0.79300
O3058       O  0.95423818  0.17380161  0.74859483    -0.77700
O3059       O  0.92508764  0.20919419  0.74810173    -0.79500
O3060       O  0.57609699  0.19582503  0.75633806    -0.80500
O3061       O  0.49677647  0.17144989  0.79710884    -0.81800
O3062       O  0.50402286  0.17000394  0.70761144    -0.82100
Eu3063     Eu  0.50015566  0.19165475  0.75174738     2.39200
O3064       O  0.97527916  0.22198469  0.77804818    -0.89600
O3065       O  0.52937137  0.21615603  0.72401699    -0.93200
C3066       C  0.50604153  0.17658361  0.68280664     1.01500
C3067       C  0.49764215  0.18033392  0.82140197     1.01300
C3068       C  0.56692242  0.17175861  0.75782002     1.01300
C3069       C  0.93035388  0.18382936  0.74757902     0.99100
H3070       H  0.53819100  0.20588170  0.79052791     0.28900
O3071       O  0.52822470  0.21769229  0.77893113    -1.02000
H3072       H  0.96460067  0.21084543  0.71191706     0.28900
O3073       O  0.97651747  0.22110695  0.72320690    -1.04500
O3074       O  0.50648886  0.29291509  0.82650651    -0.81700
O3075       O  0.50914694  0.29140259  0.67457491    -0.81300
O3076       O  0.57981864  0.23914574  0.79428263    -0.79700
O3077       O  0.92779522  0.25063259  0.79236587    -0.83100
O3078       O  0.92979047  0.25352101  0.70686294    -0.80900
O3079       O  0.58191336  0.23628723  0.70929054    -0.79600
O3080       O  0.55613608  0.31703877  0.75100408    -0.81100
O3081       O  0.96833930  0.32598988  0.74839770    -0.83000
O3082       O  0.58529434  0.28171367  0.75066316    -0.79700
O3083       O  0.93317267  0.29660360  0.74815418    -0.82400
O3084       O  0.54841969  0.24348496  0.82724526    -0.78100
O3085       O  0.55156828  0.24231851  0.67564520    -0.78200
O3086       O  0.96105885  0.25006824  0.67376947    -0.77800
O3087       O  0.95803929  0.24779836  0.82642130    -0.81300
O3088       O  0.51213561  0.32358393  0.79325923    -0.80700
O3089       O  0.51231832  0.32239426  0.70808988    -0.79100
Eu3090     Eu  0.50364138  0.24795391  0.80562624     2.39800
Eu3091     Eu  0.50598939  0.24594270  0.69553440     2.39600
Eu3092     Eu  0.55804195  0.24102644  0.75141929     2.38400
Eu3093     Eu  0.95150522  0.25083640  0.74993533     2.39900
Eu3094     Eu  0.51001659  0.29995512  0.75072113     2.39800
O3095       O  0.98128567  0.27513273  0.72319115    -0.93500
O3096       O  0.53427639  0.27129488  0.77861414    -0.92400
C3097       C  0.50991070  0.31712690  0.81794281     1.01700
C3098       C  0.51136943  0.31585006  0.68334921     1.00400
C3099       C  0.57281941  0.24027693  0.81882097     0.99800
C3100       C  0.93371377  0.24886787  0.81723775     1.01800
C3101       C  0.93659416  0.25289091  0.68220520     1.00700
C3102       C  0.57567535  0.23831933  0.68452781     0.99600
C3103       C  0.58001805  0.30700254  0.75064346     0.99600
C3104       C  0.94301629  0.32056964  0.74763222     1.02200
H3105       H  0.54741159  0.28069049  0.71276294     0.29600
O3106       O  0.53487858  0.27067767  0.72345916    -1.05700
H3107       H  0.96868745  0.28906402  0.78834551     0.31700
O3108       O  0.97930814  0.27677117  0.77782532    -1.08200
O3109       O  0.82965287  0.49226366  0.70544845    -0.80800
O3110       O  0.67642296  0.49540748  0.71031157    -0.82300
O3111       O  0.75409454  0.44802638  0.67802115    -0.79300
O3112       O  0.75259666  0.03777835  0.67210953    -0.77700
O3113       O  0.75401297  0.07214079  0.70231601    -0.79500
O3114       O  0.75343784  0.41739234  0.71184909    -0.80500
O3115       O  0.70683321  0.49246928  0.67634618    -0.81800
O3116       O  0.79739391  0.49330119  0.67312288    -0.82100
Eu3117     Eu  0.75260899  0.49376511  0.69641321     2.39200
O3118       O  0.72666878  0.02369072  0.72304644    -0.89600
O3119       O  0.77959350  0.46698392  0.72425788    -0.93200
C3120       C  0.82225312  0.49219069  0.68098241     1.01500
C3121       C  0.68244855  0.49373488  0.68533266     1.01300
C3122       C  0.75411802  0.42375470  0.68697840     1.01300
C3123       C  0.75334173  0.06298878  0.67822750     0.99100
H3124       H  0.71467662  0.45627442  0.71605267     0.28900
O3125       O  0.72631107  0.46791726  0.72618493    -1.02000
H3126       H  0.79179372  0.03249590  0.70919704     0.28900
O3127       O  0.78040193  0.02239703  0.72100043    -1.04500
O3128       O  0.68004181  0.49612331  0.79878323    -0.81700
O3129       O  0.83305975  0.49890500  0.78916265    -0.81300
O3130       O  0.70936640  0.41936891  0.75618836    -0.79700
O3131       O  0.71127017  0.07603073  0.74607738    -0.83100
O3132       O  0.80076221  0.07173467  0.74510216    -0.80900
O3133       O  0.79696912  0.41933030  0.75444510    -0.79600
O3134       O  0.75706795  0.45756025  0.82975924    -0.81100
O3135       O  0.75437116  0.04591876  0.82398505    -0.83000
O3136       O  0.75430516  0.42301893  0.79988375    -0.79700
O3137       O  0.75461629  0.07642726  0.79013866    -0.82400
O3138       O  0.67789706  0.45263735  0.75470583    -0.78100
O3139       O  0.83016066  0.45069648  0.75080168    -0.78200
O3140       O  0.83127825  0.03744584  0.74496211    -0.77800
O3141       O  0.67875290  0.04366271  0.74921995    -0.81300
O3142       O  0.71424254  0.49925398  0.82895851    -0.80700
O3143       O  0.80279297  0.50136306  0.82315096    -0.79100
Eu3144     Eu  0.70032906  0.49606875  0.75340092     2.39800
Eu3145     Eu  0.80802959  0.49527919  0.74845688     2.39600
Eu3146     Eu  0.75345457  0.44173731  0.75434789     2.38400
Eu3147     Eu  0.75503336  0.05236971  0.74730450     2.39900
Eu3148     Eu  0.75685911  0.49950825  0.80472638     2.39800
O3149       O  0.78250572  0.02559842  0.77481849    -0.93500
O3150       O  0.72793655  0.47050730  0.78120640    -0.92400
C3151       C  0.68911720  0.49768326  0.82291689     1.01700
C3152       C  0.82700026  0.50086039  0.81385118     1.00400
C3153       C  0.68483257  0.42777153  0.75572693     0.99800
C3154       C  0.68654373  0.06812531  0.74684925     1.01800
C3155       C  0.82508177  0.06258183  0.74424701     1.00700
C3156       C  0.82185466  0.42617092  0.75268713     0.99600
C3157       C  0.75565964  0.43241230  0.82386666     0.99600
C3158       C  0.75395012  0.07015083  0.81504350     1.02200
H3159       H  0.79404641  0.45950030  0.78975342     0.29600
O3160       O  0.78241343  0.47000225  0.77850018    -1.05700
H3161       H  0.71704506  0.03940965  0.78750729     0.31700
O3162       O  0.72793507  0.02754121  0.77680948    -1.08200
O3163       O  0.70320131  0.17354274  0.00356848    -0.80800
O3164       O  0.71228244  0.32488472  0.99594884    -0.82300
O3165       O  0.67897311  0.25463223  0.54659223    -0.79300
O3166       O  0.67762929  0.25323953  0.95623275    -0.77700
O3167       O  0.70843833  0.24566203  0.92333741    -0.79500
O3168       O  0.71162167  0.25234282  0.57857907    -0.80500
O3169       O  0.67786982  0.29472743  0.99835432    -0.81800
O3170       O  0.67338312  0.20802614  0.99891776    -0.82100
Eu3171     Eu  0.69881552  0.25026146  0.99996670     2.39200
O3172       O  0.72740220  0.27359600  0.97117432    -0.89600
O3173       O  0.72567773  0.22477771  0.53064231    -0.93200
C3174       C  0.67919800  0.18284498  0.00058148     1.01500
C3175       C  0.68706529  0.31886299  0.99688457     1.01300
C3176       C  0.68678763  0.25377832  0.57099704     1.01300
C3177       C  0.68437551  0.25054883  0.93164156     0.99100
H3178       H  0.71828138  0.29163931  0.53740537     0.28900
O3179       O  0.72872512  0.27920103  0.52691096    -1.02000
H3180       H  0.71180009  0.20858979  0.96393776     0.28900
O3181       O  0.72373034  0.21959309  0.97445539    -1.04500
O3182       O  0.80065019  0.32108621  0.99726806    -0.81700
O3183       O  0.79049275  0.16753870  0.00337090    -0.81300
O3184       O  0.75705029  0.29780697  0.57324194    -0.79700
O3185       O  0.75460348  0.28586642  0.92144211    -0.83100
O3186       O  0.75024389  0.19725258  0.92751129    -0.80900
O3187       O  0.75719770  0.21021129  0.58007753    -0.79600
O3188       O  0.83133859  0.24699780  0.54084941    -0.81100
O3189       O  0.82870425  0.23760877  0.95585677    -0.83000
O3190       O  0.80161277  0.25263018  0.57498754    -0.79700
O3191       O  0.79705944  0.23755281  0.92299034    -0.82400
O3192       O  0.75765159  0.32790942  0.53899434    -0.78100
O3193       O  0.75245831  0.17587577  0.55015344    -0.78200
O3194       O  0.74874584  0.16748124  0.96201094    -0.77800
O3195       O  0.75616860  0.32027831  0.95163857    -0.81300
O3196       O  0.83073757  0.28645147  0.99845558    -0.80700
O3197       O  0.82476211  0.19779836  0.99998994    -0.79100
Eu3198     Eu  0.75564464  0.30117368  0.99673628     2.39800
Eu3199     Eu  0.74860332  0.19272930  0.00410019     2.39600
Eu3200     Eu  0.75560259  0.25223053  0.55501441     2.38400
Eu3201     Eu  0.75258578  0.24305503  0.94535107     2.39900
Eu3202     Eu  0.80611746  0.24341955  0.99853506     2.39800
O3203       O  0.77701466  0.21585781  0.97455221    -0.93500
O3204       O  0.78262844  0.27638197  0.52498387    -0.92400
C3205       C  0.82478339  0.31170551  0.99824903     1.01700
C3206       C  0.81555461  0.17364168  0.00159009     1.00400
C3207       C  0.75777292  0.32191919  0.56399743     0.99800
C3208       C  0.75576138  0.31101891  0.92760511     1.01800
C3209       C  0.74937738  0.17321954  0.93698863     1.00700
C3210       C  0.75550088  0.18506103  0.57413433     0.99600
C3211       C  0.82577995  0.24984436  0.56574676     0.99600
C3212       C  0.82169299  0.23603622  0.93125947     1.02200
H3213       H  0.79131578  0.21085692  0.53932180     0.29600
O3214       O  0.77985557  0.22180509  0.52831803    -1.05700
H3215       H  0.79315319  0.28082578  0.95870207     0.31700
O3216       O  0.78118149  0.27111383  0.97028992    -1.08200
C3217       C  0.75711588  0.16550679  0.59651588    -0.05900
C3218       C  0.75954910  0.17454947  0.62300329    -0.05800
C3219       C  0.75970017  0.15640378  0.64419223    -0.24000
C3220       C  0.75732143  0.12877198  0.63945837     0.18200
C3221       C  0.75555937  0.11936231  0.61299448     0.15500
C3222       C  0.75573731  0.13768654  0.59175082    -0.19000
C3223       C  0.75307939  0.09177056  0.60821527    -0.20800
C3224       C  0.75211056  0.07367377  0.62937797    -0.13400
C3225       C  0.75379862  0.08265995  0.65590284     0.03300
C3226       C  0.75642948  0.11043310  0.66071238    -0.25500
H3227       H  0.76096286  0.19576233  0.62747662     0.08400
H3228       H  0.76126714  0.16403795  0.66432339     0.12000
H3229       H  0.75422395  0.13024705  0.57154407     0.11900
H3230       H  0.75167234  0.08416009  0.58806639     0.11700
H3231       H  0.75005537  0.05252507  0.62486706     0.12200
H3232       H  0.75779241  0.11783411  0.68094520     0.14100
C3233       C  0.75489412  0.40163303  0.66723499    -0.05900
C3234       C  0.75043444  0.37498352  0.67519489    -0.05800
C3235       C  0.75038235  0.35418414  0.65656479    -0.24000
C3236       C  0.75491537  0.35958536  0.62962674     0.18200
C3237       C  0.75988732  0.38616478  0.62137799     0.15500
C3238       C  0.75985883  0.40700191  0.64020209    -0.19000
C3239       C  0.76453427  0.39145728  0.59440009    -0.20800
C3240       C  0.76384696  0.37064170  0.57570500    -0.13400
C3241       C  0.75866175  0.34412639  0.58367413     0.03300
C3242       C  0.75436808  0.33881785  0.61081116    -0.25500
H3243       H  0.74662074  0.37018236  0.69582535     0.08400
H3244       H  0.74660926  0.33387966  0.66321468     0.12000
H3245       H  0.76358925  0.42738095  0.63373311     0.11900
H3246       H  0.76853310  0.41171096  0.58773201     0.11700
H3247       H  0.76744817  0.37532175  0.55501033     0.12200
H3248       H  0.75032452  0.31852695  0.61736781     0.14100
C3249       C  0.75547643  0.41312754  0.84630007    -0.05900
C3250       C  0.75176653  0.42221280  0.87259140    -0.05800
C3251       C  0.75128647  0.40413393  0.89376389    -0.24000
C3252       C  0.75459242  0.37660204  0.88911170     0.18200
C3253       C  0.75859766  0.36727133  0.86285908     0.15500
C3254       C  0.75890807  0.38551526  0.84167022    -0.19000
C3255       C  0.76212237  0.33979445  0.85818112    -0.20800
C3256       C  0.76124109  0.32163399  0.87922442    -0.13400
C3257       C  0.75692000  0.33056313  0.90544144     0.03300
C3258       C  0.75381014  0.35823723  0.91021983    -0.25500
H3259       H  0.74898255  0.44333970  0.87683836     0.08400
H3260       H  0.74823770  0.41168618  0.91375635     0.12000
H3261       H  0.76191715  0.37817120  0.82159288     0.11900
H3262       H  0.76543211  0.33231168  0.83820739     0.11700
H3263       H  0.76400646  0.30052378  0.87490043     0.12200
H3264       H  0.75051674  0.36550544  0.93028266     0.14100
C3265       C  0.75222285  0.09230176  0.83471260    -0.05900
C3266       C  0.75038236  0.11906248  0.82612647    -0.05800
C3267       C  0.74869099  0.14003890  0.84446267    -0.24000
C3268       C  0.74904171  0.13473019  0.87177599     0.18200
C3269       C  0.75089231  0.10797974  0.88074591     0.15500
C3270       C  0.75219876  0.08692809  0.86219807    -0.19000
C3271       C  0.75182876  0.10279744  0.90810881    -0.20800
C3272       C  0.75123325  0.12395441  0.92639824    -0.13400
C3273       C  0.74932967  0.15068257  0.91768105     0.03300
C3274       C  0.74799762  0.15581461  0.89022372    -0.25500
H3275       H  0.75024348  0.12387977  0.80515806     0.08400
H3276       H  0.74736867  0.16045685  0.83725833     0.12000
H3277       H  0.75352574  0.06643821  0.86922392     0.11900
H3278       H  0.75337536  0.08241367  0.91536360     0.11700
H3279       H  0.75246983  0.11934822  0.94738221     0.12200
H3280       H  0.74649714  0.17625520  0.88309248     0.14100
C3281       C  0.90746603  0.16483468  0.74574849    -0.05900
C3282       C  0.88090822  0.17385531  0.74912922    -0.05800
C3283       C  0.85945982  0.15576996  0.74859105    -0.24000
C3284       C  0.86412665  0.12828905  0.74478868     0.18200
C3285       C  0.89065486  0.11902838  0.74095750     0.15500
C3286       C  0.91207005  0.13733014  0.74119197    -0.19000
C3287       C  0.89539261  0.09152470  0.73756232    -0.20800
C3288       C  0.87410138  0.07328722  0.73846464    -0.13400
C3289       C  0.84754377  0.08218519  0.74246539     0.03300
C3290       C  0.84276203  0.10988780  0.74527672    -0.25500
H3291       H  0.87668601  0.19487709  0.75264212     0.08400
H3292       H  0.83924858  0.16323460  0.75158631     0.12000
H3293       H  0.93236207  0.13002401  0.73827432     0.11900
H3294       H  0.91561863  0.08406219  0.73461412     0.11700
H3295       H  0.87851710  0.05214253  0.73612700     0.12200
H3296       H  0.82249455  0.11714486  0.74842160     0.14100
C3297       C  0.92396831  0.34347421  0.74667706    -0.05900
C3298       C  0.93344631  0.37008941  0.74673454    -0.05800
C3299       C  0.91555741  0.39170011  0.74799774    -0.24000
C3300       C  0.88780052  0.38716676  0.74913598     0.18200
C3301       C  0.87807806  0.36053145  0.74824896     0.15500
C3302       C  0.89610677  0.33895568  0.74682853    -0.19000
C3303       C  0.85044089  0.35580151  0.74924111    -0.20800
C3304       C  0.83252978  0.37717249  0.75122331    -0.13400
C3305       C  0.84173954  0.40389719  0.75206906     0.03300
C3306       C  0.86959667  0.40872421  0.75111847    -0.25500
H3307       H  0.95477452  0.37427808  0.74631212     0.08400
H3308       H  0.92346463  0.41193990  0.74841821     0.12000
H3309       H  0.88836670  0.31863229  0.74648128     0.11900
H3310       H  0.84262548  0.33552573  0.74851751     0.11700
H3311       H  0.81128077  0.37262069  0.75175954     0.12200
H3312       H  0.87709782  0.42912385  0.75172801     0.14100
C3313       C  0.66483478  0.08778626  0.74428303    -0.05900
C3314       C  0.64738154  0.08556494  0.72249452    -0.05800
C3315       C  0.62370286  0.10044805  0.72154010    -0.24000
C3316       C  0.61686956  0.11750696  0.74261582     0.18200
C3317       C  0.63424639  0.11973010  0.76484664     0.15500
C3318       C  0.65833900  0.10499740  0.76542802    -0.19000
C3319       C  0.62711689  0.13660268  0.78604489    -0.20800
C3320       C  0.60384582  0.15220811  0.78450452    -0.13400
C3321       C  0.58716866  0.15083256  0.76201329     0.03300
C3322       C  0.59328084  0.13287087  0.74148873    -0.25500
H3323       H  0.65183149  0.07171261  0.70644885     0.08400
H3324       H  0.61057255  0.09835395  0.70447733     0.12000
H3325       H  0.67142237  0.10605012  0.78264296     0.11900
H3326       H  0.63993611  0.13838125  0.80337559     0.11700
H3327       H  0.59933061  0.16616140  0.80043376     0.12200
H3328       H  0.58059147  0.13212344  0.72397210     0.14100
C3329       C  0.66279300  0.40788904  0.75601202    -0.05900
C3330       C  0.63632268  0.41658251  0.76071243    -0.05800
C3331       C  0.61503588  0.39854553  0.76021099    -0.24000
C3332       C  0.61973381  0.37140507  0.75502074     0.18200
C3333       C  0.64614757  0.36227013  0.75010111     0.15500
C3334       C  0.66758974  0.38056653  0.75073437    -0.19000
C3335       C  0.65057011  0.33501151  0.74470966    -0.20800
C3336       C  0.62908630  0.31695655  0.74477216    -0.13400
C3337       C  0.60282651  0.32591310  0.75009127     0.03300
C3338       C  0.59835365  0.35327909  0.75492443    -0.25500
H3339       H  0.63196054  0.43746076  0.76485120     0.08400
H3340       H  0.59488271  0.40584325  0.76395161     0.12000
H3341       H  0.68783668  0.37360841  0.74684094     0.11900
H3342       H  0.67062203  0.32763658  0.74063810     0.11700
H3343       H  0.63304959  0.29599296  0.74065526     0.12200
H3344       H  0.57823954  0.36053066  0.75900249     0.14100
C3345       C  0.84910775  0.24948182  0.58452864    -0.05900
C3346       C  0.87433331  0.24022848  0.57561646    -0.05800
C3347       C  0.89657910  0.23952882  0.59258493    -0.24000
C3348       C  0.89433132  0.24821408  0.61896024     0.18200
C3349       C  0.86927447  0.25787705  0.62820603     0.15500
C3350       C  0.84681939  0.25833277  0.61104889    -0.19000
C3351       C  0.86708741  0.26684011  0.65450841    -0.20800
C3352       C  0.88919566  0.26570445  0.67157136    -0.13400
C3353       C  0.91413404  0.25554694  0.66285148     0.03300
C3354       C  0.91661698  0.24713957  0.63627275    -0.25500
H3355       H  0.87692201  0.23319960  0.55539873     0.08400
H3356       H  0.91555813  0.23209215  0.58504564     0.12000
H3357       H  0.82769567  0.26571148  0.61829368     0.11900
H3358       H  0.84819641  0.27454924  0.66198991     0.11700
H3359       H  0.88662499  0.27269010  0.69181940     0.12200
H3360       H  0.93561192  0.23923308  0.62923346     0.14100
C3361       C  0.59812602  0.23669149  0.66527440    -0.05900
C3362       C  0.62098390  0.22105096  0.67086713    -0.05800
C3363       C  0.64313244  0.22107919  0.65370614    -0.24000
C3364       C  0.64311031  0.23727581  0.63094474     0.18200
C3365       C  0.62016382  0.25302835  0.62523983     0.15500
C3366       C  0.59775632  0.25232458  0.64215973    -0.19000
C3367       C  0.62007929  0.26959733  0.60286607    -0.20800
C3368       C  0.64224895  0.27029646  0.58599819    -0.13400
C3369       C  0.66508500  0.25454241  0.59109790     0.03300
C3370       C  0.66553413  0.23813378  0.61381584    -0.25500
H3371       H  0.62173908  0.20883354  0.68861991     0.08400
H3372       H  0.66042161  0.20879836  0.65847620     0.12000
H3373       H  0.58041167  0.26473281  0.63786159     0.11900
H3374       H  0.60278182  0.28194995  0.59830863     0.11700
H3375       H  0.64145770  0.28308922  0.56864805     0.12200
H3376       H  0.68289525  0.22562226  0.61772422     0.14100
C3377       C  0.66251133  0.25304875  0.91198965    -0.05900
C3378       C  0.63977164  0.26857182  0.91822784    -0.05800
C3379       C  0.61751223  0.26886796  0.90142926    -0.24000
C3380       C  0.61748403  0.25349302  0.87814209     0.18200
C3381       C  0.64062845  0.23852766  0.87116076     0.15500
C3382       C  0.66314642  0.23864468  0.88798102    -0.19000
C3383       C  0.64063073  0.22332276  0.84773317    -0.20800
C3384       C  0.61805986  0.22317951  0.83130532    -0.13400
C3385       C  0.59501130  0.23809016  0.83805895     0.03300
C3386       C  0.59472272  0.25294807  0.86170306    -0.25500
H3387       H  0.63902601  0.28020651  0.93643292     0.08400
H3388       H  0.60013525  0.28073535  0.90691172     0.12000
H3389       H  0.68061528  0.22666931  0.88297205     0.11900
H3390       H  0.65811135  0.21171294  0.84202058     0.11700
H3391       H  0.61874969  0.21164841  0.81303541     0.12200
H3392       H  0.57719908  0.26479973  0.86680293     0.14100
C3393       C  0.91043714  0.24778907  0.83587310    -0.05900
C3394       C  0.88512018  0.25692714  0.82719537    -0.05800
C3395       C  0.86252238  0.25529028  0.84352832    -0.24000
C3396       C  0.86448336  0.24422961  0.86897280     0.18200
C3397       C  0.88963249  0.23454877  0.87794435     0.15500
C3398       C  0.91251264  0.23653898  0.86144903    -0.19000
C3399       C  0.89141655  0.22320765  0.90333548    -0.20800
C3400       C  0.86892157  0.22255927  0.92000207    -0.13400
C3401       C  0.84402533  0.23314690  0.91171663     0.03300
C3402       C  0.84182766  0.24327485  0.88576509    -0.25500
H3403       H  0.88271597  0.26557897  0.80762077     0.08400
H3404       H  0.84347546  0.26277980  0.83623185     0.12000
H3405       H  0.93171488  0.22901746  0.86833651     0.11900
H3406       H  0.91034517  0.21534313  0.91054929     0.11700
H3407       H  0.87119378  0.21428255  0.93975883     0.12200
H3408       H  0.82286503  0.25154171  0.87907344     0.14100
C3409       C  0.90552549  0.41657985  0.50236608    -0.05900
C3410       C  0.87967468  0.42508487  0.49480869    -0.05800
C3411       C  0.85870781  0.40665383  0.49246765    -0.24000
C3412       C  0.86323939  0.37943992  0.49767916     0.18200
C3413       C  0.88905091  0.37078908  0.50560175     0.15500
C3414       C  0.91098515  0.38715899  0.00494352    -0.19000
C3415       C  0.89323221  0.34211992  0.01213474    -0.20800
C3416       C  0.87210503  0.32372371  0.01041088    -0.13400
C3417       C  0.84711806  0.33340209  0.50019488     0.03300
C3418       C  0.84243365  0.36072031  0.49506485    -0.25500
H3419       H  0.87574432  0.44591504  0.49015552     0.08400
H3420       H  0.83905026  0.41363560  0.48634003     0.12000
H3421       H  0.93008684  0.38095306  0.01325701     0.11900
H3422       H  0.91214348  0.33574518  0.02070796     0.11700
H3423       H  0.87517240  0.30359816  0.01787989     0.12200
H3424       H  0.82265837  0.36744370  0.48899526     0.14100
C3425       C  0.83864495  0.15523255  0.50009659    -0.05900
C3426       C  0.82673175  0.12497399  0.00696992    -0.05800
C3427       C  0.84512019  0.10384280  0.00667744    -0.24000
C3428       C  0.87216187  0.10864248  0.00063789     0.18200
C3429       C  0.88487280  0.13870477  0.49912534     0.15500
C3430       C  0.86647824  0.16010627  0.49826830    -0.19000
C3431       C  0.91256671  0.14328647  0.49691119    -0.20800
C3432       C  0.93060209  0.12176664  0.49727013    -0.13400
C3433       C  0.92132667  0.09523568  0.50004470     0.03300
C3434       C  0.89083688  0.08757624  0.00053588    -0.25500
H3435       H  0.80598240  0.12065847  0.01176796     0.08400
H3436       H  0.83819994  0.08377146  0.01122897     0.12000
H3437       H  0.87385513  0.18044530  0.49617312     0.11900
H3438       H  0.92026774  0.16347102  0.49461027     0.11700
H3439       H  0.95182880  0.12593882  0.49513640     0.12200
H3440       H  0.88419213  0.06745036  0.00528820     0.14100
C3441       C  0.66906942  0.34308409  0.49285879    -0.05900
C3442       C  0.67672364  0.36796664  0.99847959    -0.05800
C3443       C  0.65875673  0.38942248  0.99799571    -0.24000
C3444       C  0.63114176  0.38477812  0.99560589     0.18200
C3445       C  0.62263373  0.35845448  0.49481182     0.15500
C3446       C  0.64146459  0.33757639  0.49519704    -0.19000
C3447       C  0.59518588  0.35311141  0.49792658    -0.20800
C3448       C  0.57668038  0.37416076  0.49874886    -0.13400
C3449       C  0.58531052  0.40092075  0.49643883    -0.02300
C3450       C  0.61299165  0.40629296  0.99600300    -0.25500
H3451       H  0.69792263  0.37229835  0.00061741     0.08400
H3452       H  0.66647545  0.40967066  0.99974781     0.12000
H3453       H  0.63460496  0.31713698  0.49791812     0.11900
H3454       H  0.58806483  0.33269308  0.50004990     0.11700
H3455       H  0.55563126  0.36945489  0.50141886     0.12200
H3456       H  0.62059142  0.42657584  0.99798883     0.14100
C3457       C  0.65794460  0.16381117  0.50176541    -0.05900
C3458       C  0.63096470  0.17184704  0.99104746    -0.05800
C3459       C  0.61002406  0.15343664  0.98820431    -0.24000
C3460       C  0.61456838  0.12606021  0.99246823     0.18200
C3461       C  0.64168289  0.11743132  0.50396949     0.15500
C3462       C  0.66252849  0.13634824  0.50675155    -0.19000
C3463       C  0.64613289  0.09015187  0.50922814    -0.20800
C3464       C  0.62528508  0.07147503  0.50643258    -0.13400
C3465       C  0.59949737  0.07963950  0.49827720     0.03300
C3466       C  0.59336371  0.10762431  0.99074623    -0.25500
H3467       H  0.62679120  0.19286697  0.98760394     0.08400
H3468       H  0.59021516  0.16065227  0.98288370     0.12000
H3469       H  0.68229710  0.12964532  0.51283484     0.11900
H3470       H  0.66572061  0.08326239  0.51565650     0.11700
H3471       H  0.62930164  0.05064779  0.51102517     0.12200
H3472       H  0.57334280  0.11470898  0.98602724     0.14100
C3473       C  0.84818665  0.00126377  0.83271239    -0.05900
C3474       C  0.87467839  0.00362861  0.82316021    -0.05800
C3475       C  0.89633565  0.00426905  0.84069825    -0.24000
C3476       C  0.89191189  0.00237986  0.86807422     0.18200
C3477       C  0.86699912  0.50012026  0.87748662     0.15500
C3478       C  0.84539151  0.49911573  0.85981309    -0.19000
C3479       C  0.86260623  0.49684831  0.90466660    -0.20800
C3480       C  0.88409856  0.49779606  0.92224865    -0.13400
C3481       C  0.90895194  0.00054326  0.91332643     0.03300
C3482       C  0.91355880  0.00272779  0.88589303    -0.25500
H3483       H  0.87874792  0.00507058  0.80206971     0.08400
H3484       H  0.91650497  0.00613540  0.83284909     0.12000
H3485       H  0.82529955  0.49556773  0.86731251     0.11900
H3486       H  0.84256387  0.49347747  0.91234211     0.11700
H3487       H  0.88000146  0.49490294  0.94317789     0.12200
H3488       H  0.93387536  0.00463723  0.87840838     0.14100
C3489       C  0.58802093  0.98993827  0.90631550    -0.05900
C3490       C  0.58023995  0.97993983  0.88127972    -0.05800
C3491       C  0.59805855  0.98011187  0.85984631    -0.24000
C3492       C  0.62403919  0.99045088  0.86289346     0.18200
C3493       C  0.63397087  0.49787666  0.88935907     0.15500
C3494       C  0.61605568  0.49789370  0.91102363    -0.19000
C3495       C  0.66047305  0.50671674  0.89249908    -0.20800
C3496       C  0.67814523  0.50661615  0.87090504    -0.13400
C3497       C  0.66810694  0.00120390  0.84435924     0.03300
C3498       C  0.64194091  0.99103471  0.84123899    -0.25500
H3499       H  0.56023430  0.97197565  0.87821845     0.08400
H3500       H  0.59143100  0.97231498  0.84081720     0.12000
H3501       H  0.62271815  0.50505879  0.93029964     0.11900
H3502       H  0.66757880  0.51368857  0.91167678     0.11700
H3503       H  0.69848221  0.51360957  0.87409791     0.12200
H3504       H  0.63563601  0.98321616  0.82210027     0.14100
C3505       C  0.59772926  0.99546124  0.58326461    -0.05900
C3506       C  0.62437380  0.99304697  0.57406380    -0.05800
C3507       C  0.64612830  0.99337145  0.59176839    -0.24000
C3508       C  0.64187629  0.99597526  0.61921584     0.18200
C3509       C  0.61543280  0.49451067  0.62985591     0.15500
C3510       C  0.59363756  0.49571848  0.61187925    -0.19000
C3511       C  0.61119650  0.49647297  0.65732967    -0.20800
C3512       C  0.63288598  0.49585927  0.67506024    -0.13400
C3513       C  0.65923091  0.99812418  0.66490368     0.03300
C3514       C  0.66366972  0.99603633  0.63725404    -0.25500
H3515       H  0.62852133  0.99090535  0.55304259     0.08400
H3516       H  0.66630919  0.99146423  0.58395460     0.12000
H3517       H  0.57344654  0.49832043  0.61948170     0.11900
H3518       H  0.59105085  0.49866183  0.66516056     0.11700
H3519       H  0.62867690  0.49763127  0.69609947     0.12200
H3520       H  0.68398659  0.99424503  0.62975322     0.14100
C3521       C  0.84452903  0.99114552  0.66198447    -0.05900
C3522       C  0.86757029  0.47527196  0.66806690    -0.05800
C3523       C  0.89003533  0.47461272  0.65145218    -0.24000
C3524       C  0.89039758  0.48956444  0.62797681     0.18200
C3525       C  0.86750163  0.00584756  0.62167185     0.15500
C3526       C  0.84443643  0.00555112  0.63801001    -0.19000
C3527       C  0.86790836  0.02079791  0.59817727    -0.20800
C3528       C  0.89058644  0.02054171  0.58186943    -0.13400
C3529       C  0.91347325  0.00540205  0.58859764     0.03300
C3530       C  0.91317082  0.48931700  0.61130656    -0.25500
H3531       H  0.86817574  0.46388490  0.68636138     0.08400
H3532       H  0.90726841  0.46267233  0.65717981     0.12000
H3533       H  0.82684981  0.01709806  0.63251508     0.11900
H3534       H  0.85059759  0.03251767  0.59225709     0.11700
H3535       H  0.89011450  0.03205658  0.56364469     0.12200
H3536       H  0.93032912  0.47687207  0.61619627     0.14100
C3537       C  0.50215228  0.08116191  0.90576187    -0.05900
C3538       C  0.00182864  0.07101890  0.87949704    -0.05800
C3539       C  0.00030356  0.08819383  0.85778282    -0.24000
C3540       C  0.99868845  0.11588991  0.86174982     0.18200
C3541       C  0.49923711  0.12631170  0.88798205     0.15500
C3542       C  0.50079247  0.10894079  0.90980577    -0.19000
C3543       C  0.49769742  0.15397571  0.89196982    -0.20800
C3544       C  0.49648460  0.17119698  0.87026762    -0.13400
C3545       C  0.49684455  0.16121126  0.84397214     0.03300
C3546       C  0.99749940  0.13336612  0.83992273    -0.25500
H3547       H  0.00301133  0.04967738  0.87559548     0.08400
H3548       H  0.00041510  0.07978950  0.83789544     0.12000
H3549       H  0.50071926  0.11704408  0.92983016     0.11900
H3550       H  0.49761503  0.16234580  0.91187731     0.11700
H3551       H  0.49558934  0.19253112  0.87423926     0.12200
H3552       H  0.99804101  0.12532585  0.81988890     0.14100
C3553       C  0.51083976  0.33938747  0.83746603    -0.05900
C3554       C  0.52397580  0.36347452  0.83095654    -0.05800
C3555       C  0.52342556  0.38537464  0.84829292    -0.24000
C3556       C  0.50960923  0.38369085  0.87244497     0.18200
C3557       C  0.99676728  0.35943337  0.87943881     0.15500
C3558       C  0.99751385  0.33741123  0.86194924    -0.19000
C3559       C  0.98290298  0.35782950  0.90360681    -0.20800
C3560       C  0.98250501  0.37975066  0.92096945    -0.13400
C3561       C  0.49553374  0.40382645  0.91433143     0.03300
C3562       C  0.50871552  0.40578671  0.88978002    -0.25500
H3563       H  0.53462250  0.36544190  0.81229959     0.08400
H3564       H  0.53365577  0.40369336  0.84271619     0.12000
H3565       H  0.98692114  0.31912259  0.86697708     0.11900
H3566       H  0.97257824  0.33956656  0.90918808     0.11700
H3567       H  0.97192709  0.37789637  0.93968058     0.12200
H3568       H  0.51894298  0.42421987  0.88451909     0.14100
C3569       C  0.51268933  0.33867514  0.66438731    -0.05900
C3570       C  0.02415741  0.36319098  0.67283509    -0.05800
C3571       C  0.02376582  0.38579429  0.65646133    -0.24000
C3572       C  0.01191758  0.38456836  0.63124399     0.18200
C3573       C  0.50064837  0.35996289  0.62235009     0.15500
C3574       C  0.50139266  0.33710594  0.63883650    -0.19000
C3575       C  0.48896361  0.35861736  0.59712524    -0.20800
C3576       C  0.48838480  0.38123602  0.58080467    -0.13400
C3577       C  0.49939930  0.40602025  0.58913162     0.03300
C3578       C  0.01111103  0.40748225  0.61469626    -0.25500
H3579       H  0.03320652  0.36504697  0.69234044     0.08400
H3580       H  0.03254381  0.40432456  0.66366076     0.12000
H3581       H  0.49254576  0.31841453  0.63208955     0.11900
H3582       H  0.48039124  0.33999336  0.58988568     0.11700
H3583       H  0.47933633  0.37916668  0.56132773     0.12200
H3584       H  0.01998454  0.42615841  0.62140616     0.14100
C3585       C  0.50908722  0.15416416  0.66320108    -0.05900
C3586       C  0.51285434  0.12775016  0.67238091    -0.05800
C3587       C  0.51506557  0.10622692  0.65467152    -0.24000
C3588       C  0.51340939  0.11042351  0.62723593     0.18200
C3589       C  0.01032089  0.13688005  0.61753314     0.15500
C3590       C  0.00841301  0.15863214  0.63550713    -0.19000
C3591       C  0.00901494  0.14098013  0.59000761    -0.20800
C3592       C  0.00958515  0.11912938  0.57245128    -0.13400
C3593       C  0.51169182  0.09254676  0.58191041     0.03300
C3594       C  0.51406496  0.08852284  0.60946992    -0.25500
H3595       H  0.51394819  0.12354993  0.69345073     0.08400
H3596       H  0.51762415  0.08617207  0.66251380     0.12000
H3597       H  0.00614541  0.17883355  0.62792837     0.11900
H3598       H  0.00706393  0.16105637  0.58204199     0.11700
H3599       H  0.00795341  0.12310956  0.55136471     0.12200
H3600       H  0.51595537  0.06833677  0.61718197     0.14100
O3601       O  0.50755003  0.54434528  0.07462400    -0.80800
O3602       O  0.50091358  0.53585197  0.42021746    -0.82300
O3603       O  0.55270783  0.56995012  0.99740050    -0.79300
O3604       O  0.96527401  0.57817652  0.99679029    -0.77700
O3605       O  0.93073005  0.54803310  0.99704640    -0.79500
O3606       O  0.58251254  0.53513090  0.99720589    -0.80500
O3607       O  0.50655998  0.56999608  0.45012591    -0.81800
O3608       O  0.51067181  0.57482488  0.04078515    -0.82100
Eu3609     Eu  0.50689072  0.55187533  0.99763059     2.39200
O3610       O  0.97671730  0.52526879  0.47085530    -0.89600
O3611       O  0.53105111  0.52255258  0.02521925    -0.93200
C3612       C  0.51026914  0.56860579  0.06569682     1.01500
C3613       C  0.50365859  0.56088126  0.42612119     1.01300
C3614       C  0.57677386  0.56034033  0.99731034     1.01300
C3615       C  0.94006800  0.57221715  0.99652241     0.99100
H3616       H  0.54230420  0.53066450  0.45734048     0.28900
O3617       O  0.53094250  0.52056302  0.46915701    -1.02000
H3618       H  0.96775624  0.54007118  0.03673153     0.28900
O3619       O  0.97807895  0.52763401  0.02614443    -1.04500
O3620       O  0.49566788  0.94822851  0.42649259    -0.81700
O3621       O  0.50250364  0.95250708  0.07585913    -0.81300
O3622       O  0.57623649  0.49256877  0.45052341    -0.79700
O3623       O  0.92577973  0.50199691  0.45726289    -0.83100
O3624       O  0.92508100  0.50524329  0.04058290    -0.80900
O3625       O  0.57913212  0.49563395  0.04143404    -0.79600
O3626       O  0.54069124  0.91849415  0.99672254    -0.81100
O3627       O  0.95399513  0.92330931  0.00010429    -0.83000
O3628       O  0.57531134  0.94848820  0.99581137    -0.79700
O3629       O  0.92392251  0.95789476  0.99888172    -0.82400
O3630       O  0.54192960  0.49204825  0.42027405    -0.78100
O3631       O  0.54829676  0.49846934  0.07509077    -0.78200
O3632       O  0.95596815  0.50162986  0.07412294    -0.77800
O3633       O  0.95588624  0.49590950  0.42361214    -0.81300
O3634       O  0.49453232  0.91775235  0.46031351    -0.80700
O3635       O  0.49894152  0.92153658  0.04244411    -0.79100
Eu3636     Eu  0.50017907  0.49379335  0.44497143     2.39800
Eu3637     Eu  0.50264538  0.49870371  0.05463081     2.39600
Eu3638     Eu  0.55650422  0.49356517  0.99822388     2.38400
Eu3639     Eu  0.94888474  0.50201932  0.99930340     2.39900
Eu3640     Eu  0.49849264  0.94357620  0.99993075     2.39800
O3641       O  0.97349278  0.97249122  0.02747082    -0.93500
O3642       O  0.52581427  0.96627377  0.47168273    -0.92400
C3643       C  0.49440217  0.92401199  0.43553974     1.01700
C3644       C  0.50081938  0.92797688  0.06709077     1.00400
C3645       C  0.56702830  0.49257114  0.42632418     0.99800
C3646       C  0.93180769  0.49933536  0.43244966     1.01800
C3647       C  0.93149569  0.50405766  0.06523450     1.00700
C3648       C  0.57275937  0.49772847  0.06621721     0.99600
C3649       C  0.56586367  0.92439528  0.99536569     0.99600
C3650       C  0.92990689  0.93266993  0.99903603     1.02200
H3651       H  0.53903947  0.95740920  0.03674617     0.29600
O3652       O  0.52802085  0.96916964  0.02615748    -1.05700
H3653       H  0.95854911  0.96039095  0.46374565     0.31700
O3654       O  0.97112028  0.97093203  0.47399977    -1.08200
O3655       O  0.50486951  0.70091546  0.17523184    -0.80800
O3656       O  0.49777049  0.70773937  0.32841593    -0.82300
O3657       O  0.54420018  0.66991236  0.25542408    -0.79300
O3658       O  0.95400970  0.67534582  0.25229322    -0.77700
O3659       O  0.92382232  0.70973410  0.24865288    -0.79500
O3660       O  0.57706641  0.70193815  0.25600150    -0.80500
O3661       O  0.49865185  0.67385389  0.29762188    -0.81800
O3662       O  0.50161023  0.67060902  0.20926021    -0.82100
Eu3663     Eu  0.50004203  0.69380323  0.25218026     2.39200
O3664       O  0.97324120  0.72375519  0.27674072    -0.89600
O3665       O  0.52894441  0.71872251  0.22429646    -0.93200
C3666       C  0.50369514  0.67662761  0.18440159     1.01500
C3667       C  0.49821084  0.68267654  0.32192161     1.01300
C3668       C  0.56909458  0.67743765  0.25702472     1.01300
C3669       C  0.92979422  0.68468543  0.25079375     0.99100
H3670       H  0.53676968  0.70982690  0.29128489     0.28900
O3671       O  0.52641061  0.72110389  0.27951861    -1.02000
H3672       H  0.96424876  0.71077607  0.21160284     0.28900
O3673       O  0.97583035  0.72174828  0.22258379    -1.04500
O3674       O  0.49977162  0.79554698  0.32476422    -0.81700
O3675       O  0.50776977  0.79189612  0.17274939    -0.81300
O3676       O  0.57588834  0.74376238  0.29626500    -0.79700
O3677       O  0.92319778  0.75142350  0.28852095    -0.83100
O3678       O  0.92915855  0.75300380  0.20392214    -0.80900
O3679       O  0.58065674  0.74559306  0.21060301    -0.79600
O3680       O  0.55061007  0.82191448  0.25194916    -0.81100
O3681       O  0.96341661  0.82739277  0.24510449    -0.83000
O3682       O  0.58033905  0.78717320  0.25422543    -0.79700
O3683       O  0.92938823  0.79673286  0.24565455    -0.82400
O3684       O  0.54369049  0.74839257  0.32837975    -0.78100
O3685       O  0.55115803  0.74777802  0.17581551    -0.78200
O3686       O  0.96058152  0.75008390  0.17105250    -0.77800
O3687       O  0.95305011  0.74928423  0.32295282    -0.81300
O3688       O  0.50333648  0.82610131  0.29113293    -0.80700
O3689       O  0.50878037  0.82341461  0.20588558    -0.79100
Eu3690     Eu  0.49955951  0.75051596  0.30484568     2.39800
Eu3691     Eu  0.50486218  0.74695765  0.19461691     2.39600
Eu3692     Eu  0.55549864  0.74548656  0.25230989     2.38400
Eu3693     Eu  0.94920952  0.75155523  0.24765330     2.39900
Eu3694     Eu  0.50536518  0.80228204  0.24896281     2.39800
O3695       O  0.97826528  0.77623886  0.22060904    -0.93500
O3696       O  0.52965338  0.77502312  0.27817348    -0.92400
C3697       C  0.50136563  0.81975878  0.31583848     1.01700
C3698       C  0.50920538  0.81648265  0.18126063     1.00400
C3699       C  0.56832870  0.74497660  0.32071284     0.99800
C3700       C  0.92882776  0.74960109  0.31341889     1.01800
C3701       C  0.93600879  0.75243326  0.17932211     1.00700
C3702       C  0.57526790  0.74736094  0.18560064     0.99600
C3703       C  0.57463228  0.81229280  0.25365775     0.99600
C3704       C  0.93835502  0.82100581  0.24472186     1.02200
H3705       H  0.54417394  0.78397417  0.21292727     0.29600
O3706       O  0.53176524  0.77332151  0.22315747    -1.05700
H3707       H  0.96373997  0.79035378  0.28585746     0.31700
O3708       O  0.97523491  0.77838062  0.27589317    -1.08200
O3709       O  0.82849923  0.99379058  0.20567303    -0.80800
O3710       O  0.67679467  0.99680125  0.20759167    -0.82300
O3711       O  0.75172885  0.94815752  0.17706595    -0.79300
O3712       O  0.74887292  0.53747539  0.17082456    -0.77700
O3713       O  0.75191502  0.57184665  0.20095665    -0.79500
O3714       O  0.74953217  0.91782602  0.21105706    -0.80500
O3715       O  0.70723601  0.99369377  0.17371990    -0.81800
O3716       O  0.79679159  0.99444747  0.17282372    -0.82100
Eu3717     Eu  0.75190535  0.99413556  0.19528240     2.39200
O3718       O  0.72596546  0.52383478  0.22185251    -0.89600
O3719       O  0.77789570  0.96710439  0.22368001    -0.93200
C3720       C  0.82148759  0.99401016  0.18108677     1.01500
C3721       C  0.68291819  0.99504757  0.18267942     1.01300
C3722       C  0.75061668  0.92393589  0.18612871     1.01300
C3723       C  0.74962938  0.56266023  0.17700631     0.99100
H3724       H  0.71232112  0.95765776  0.21444226     0.28900
O3725       O  0.72418488  0.96913441  0.22450917    -1.02000
H3726       H  0.79107551  0.53303556  0.20774986     0.28900
O3727       O  0.77983411  0.52282144  0.21960801    -1.04500
O3728       O  0.67777342  0.00010181  0.29586763    -0.81700
O3729       O  0.83047419  0.99632892  0.28990252    -0.81300
O3730       O  0.70559833  0.92211734  0.25639469    -0.79700
O3731       O  0.70930615  0.57504002  0.24718830    -0.83100
O3732       O  0.79998991  0.57244123  0.24431408    -0.80900
O3733       O  0.79232830  0.91868646  0.25344994    -0.79600
O3734       O  0.75348017  0.95808049  0.32894189    -0.81100
O3735       O  0.75635549  0.54770946  0.32184535    -0.83000
O3736       O  0.75077750  0.92372615  0.29873479    -0.79700
O3737       O  0.75639689  0.57818335  0.28791138    -0.82400
O3738       O  0.67501629  0.95614783  0.25489445    -0.78100
O3739       O  0.82597977  0.94960434  0.24962970    -0.78200
O3740       O  0.83076503  0.53839166  0.24575934    -0.77800
O3741       O  0.67734267  0.54215754  0.25018310    -0.81300
O3742       O  0.71142953  0.00194778  0.32671370    -0.80700
O3743       O  0.80020182  0.00023901  0.32374639    -0.79100
Eu3744     Eu  0.69907286  0.99845102  0.25132789     2.39800
Eu3745     Eu  0.80622291  0.99524451  0.24835938     2.39600
Eu3746     Eu  0.75025776  0.94280487  0.25331431     2.38400
Eu3747     Eu  0.75428883  0.55273549  0.24599729     2.39900
Eu3748     Eu  0.75476226  0.00060629  0.30403234     2.39800
O3749       O  0.78187597  0.52608596  0.27345400    -0.93500
O3750       O  0.72558470  0.97252668  0.27977130    -0.92400
C3751       C  0.68640374  0.00109072  0.32013319     1.01700
C3752       C  0.82441245  0.99835013  0.31462486     1.00400
C3753       C  0.68132472  0.93118680  0.25665199     0.99800
C3754       C  0.68463285  0.56678810  0.24841165     1.01800
C3755       C  0.82439528  0.56348172  0.24483841     1.00700
C3756       C  0.81720577  0.92524466  0.25168073     0.99600
C3757       C  0.75193902  0.93292342  0.32278957     0.99600
C3758       C  0.75647465  0.57199737  0.31284628     1.02200
H3759       H  0.79078391  0.95954144  0.28912010     0.29600
O3760       O  0.77956769  0.97045787  0.27784441    -1.05700
H3761       H  0.71727220  0.53961154  0.28666165     0.31700
O3762       O  0.72801599  0.52771569  0.27588904    -1.08200
O3763       O  0.70463609  0.67444985  0.50443086    -0.80800
O3764       O  0.71437866  0.82790285  0.49484845    -0.82300
O3765       O  0.67697918  0.75491430  0.04406968    -0.79300
O3766       O  0.67596997  0.75226062  0.45819834    -0.77700
O3767       O  0.70616834  0.74521624  0.42466986    -0.79500
O3768       O  0.70904184  0.75505346  0.07662890    -0.80500
O3769       O  0.68047725  0.79731397  0.49843733    -0.81800
O3770       O  0.67447987  0.70862093  0.49900322    -0.82100
Eu3771     Eu  0.69947438  0.75149267  0.50021180     2.39200
O3772       O  0.72715231  0.77542144  0.47087958    -0.89600
O3773       O  0.72410204  0.72350808  0.02999684    -0.93200
C3774       C  0.68054125  0.68347607  0.50118429     1.01500
C3775       C  0.68934992  0.82160012  0.49633410     1.01300
C3776       C  0.68428061  0.75622671  0.06862941     1.01300
C3777       C  0.68194186  0.74901842  0.43357433     0.99100
H3778       H  0.71703153  0.79067418  0.03619027     0.28900
O3779       O  0.72751436  0.77815552  0.02583030    -1.02000
H3780       H  0.71266985  0.70976795  0.46463399     0.28900
O3781       O  0.72461802  0.72089079  0.47499183    -1.04500
O3782       O  0.80075466  0.82246476  0.49724476    -0.81700
O3783       O  0.79338982  0.67034964  0.50261500    -0.81300
O3784       O  0.75710462  0.79662663  0.07308748    -0.79700
O3785       O  0.75565484  0.78688315  0.42062526    -0.83100
O3786       O  0.75016837  0.69885459  0.42696697    -0.80900
O3787       O  0.75295371  0.70945848  0.07952328    -0.79600
O3788       O  0.82981261  0.74583437  0.03969118    -0.81100
O3789       O  0.82861318  0.74266517  0.45662686    -0.83000
O3790       O  0.80008602  0.75136133  0.07385423    -0.79700
O3791       O  0.79697769  0.74082363  0.42369203    -0.82400
O3792       O  0.75774841  0.82667902  0.03881743    -0.78100
O3793       O  0.74949802  0.67488890  0.04968660    -0.78200
O3794       O  0.74796232  0.66873715  0.46116864    -0.77800
O3795       O  0.75780555  0.82105335  0.45110036    -0.81300
O3796       O  0.83131511  0.78844114  0.49991120    -0.80700
O3797       O  0.82755808  0.70088529  0.50096661    -0.79100
Eu3798     Eu  0.75607468  0.80242428  0.49658982     2.39800
Eu3799     Eu  0.75006543  0.69386113  0.50407505     2.39600
Eu3800     Eu  0.75379248  0.75130684  0.05435052     2.38400
Eu3801     Eu  0.75225337  0.74457950  0.44538612     2.39900
Eu3802     Eu  0.80692143  0.74563065  0.50010947     2.39800
O3803       O  0.77787187  0.71830373  0.47506046    -0.93500
O3804       O  0.78113469  0.77429685  0.02396336    -0.92400
C3805       C  0.82495149  0.81351547  0.49898402     1.01700
C3806       C  0.81853242  0.67661619  0.50149863     1.00400
C3807       C  0.75803103  0.82074145  0.06386824     0.99800
C3808       C  0.75750791  0.81194024  0.42699161     1.01800
C3809       C  0.74860947  0.67469708  0.43607406     1.00700
C3810       C  0.75124907  0.68431953  0.07363405     0.99600
C3811       C  0.82426070  0.74899489  0.06442007     0.99600
C3812       C  0.82162568  0.74091778  0.43198814     1.02200
H3813       H  0.78972516  0.70982168  0.03951278     0.29600
O3814       O  0.77860976  0.72077482  0.02817361    -1.05700
H3815       H  0.79329967  0.78201151  0.45941190     0.31700
O3816       O  0.78139373  0.77211451  0.47089781    -1.08200
C3817       C  0.75161757  0.66499964  0.09599724    -0.05900
C3818       C  0.76039459  0.67308913  0.12140475    -0.05800
C3819       C  0.76152650  0.65477040  0.14234801    -0.24000
C3820       C  0.75376109  0.62803205  0.13835675     0.18200
C3821       C  0.74451549  0.61977872  0.11306196     0.15500
C3822       C  0.74353226  0.63825608  0.09208544    -0.19000
C3823       C  0.73662851  0.59308755  0.10908611    -0.20800
C3824       C  0.73830264  0.57459156  0.12983833    -0.13400
C3825       C  0.74772231  0.58244743  0.15506489     0.03300
C3826       C  0.75524733  0.60937700  0.15917324    -0.25500
H3827       H  0.76679734  0.69353517  0.12504357     0.08400
H3828       H  0.76863631  0.66148176  0.16161486     0.12000
H3829       H  0.73649430  0.63176807  0.07271336     0.11900
H3830       H  0.72931702  0.58646149  0.08986628     0.11700
H3831       H  0.73208300  0.55410541  0.12613282     0.12200
H3832       H  0.76259038  0.61578458  0.17846111     0.14100
C3833       C  0.75083653  0.90160846  0.16646220    -0.05900
C3834       C  0.74681214  0.87493015  0.17462512    -0.05800
C3835       C  0.74773454  0.85386854  0.15622964    -0.24000
C3836       C  0.75286175  0.85900466  0.12931266     0.18200
C3837       C  0.75686481  0.88566168  0.12081495     0.15500
C3838       C  0.75562913  0.90676035  0.13934848    -0.19000
C3839       C  0.76218928  0.89075433  0.09392151    -0.20800
C3840       C  0.76312417  0.86967267  0.07551240    -0.13400
C3841       C  0.75871487  0.84305157  0.08360532     0.03300
C3842       C  0.75390629  0.83793043  0.11074771    -0.25500
H3843       H  0.74297696  0.87026609  0.19528399     0.08400
H3844       H  0.74455432  0.83353447  0.16308974     0.12000
H3845       H  0.75878528  0.92715392  0.13264145     0.11900
H3846       H  0.76549174  0.91107537  0.08708364     0.11700
H3847       H  0.76708452  0.87427484  0.05486709     0.12200
H3848       H  0.75047563  0.81757781  0.11744781     0.14100
C3849       C  0.75134554  0.91327064  0.34492995    -0.05900
C3850       C  0.73983037  0.92034760  0.36948352    -0.05800
C3851       C  0.73894617  0.90197323  0.39041310    -0.24000
C3852       C  0.74987244  0.87623162  0.38734758     0.18200
C3853       C  0.76167507  0.86886503  0.36283819     0.15500
C3854       C  0.76217780  0.88735449  0.34173738    -0.19000
C3855       C  0.77261683  0.84308063  0.35985093    -0.20800
C3856       C  0.77130378  0.82459828  0.38071017    -0.13400
C3857       C  0.75938548  0.83167246  0.40508304     0.03300
C3858       C  0.74900865  0.85770581  0.40833179    -0.25500
H3859       H  0.73113723  0.94005701  0.37238561     0.08400
H3860       H  0.72969164  0.90790593  0.40901061     0.12000
H3861       H  0.77124024  0.88169599  0.32295342     0.11900
H3862       H  0.78197055  0.83712652  0.34131065     0.11700
H3863       H  0.77976151  0.80477835  0.37784054     0.12200
H3864       H  0.73972892  0.86336384  0.42701397     0.14100
C3865       C  0.75610303  0.59427212  0.33263460    -0.05900
C3866       C  0.76136532  0.62086154  0.32488451    -0.05800
C3867       C  0.76035426  0.64183670  0.34343882    -0.24000
C3868       C  0.75408155  0.63669972  0.37015297     0.18200
C3869       C  0.74882954  0.61013054  0.37822045     0.15500
C3870       C  0.74984525  0.58915068  0.35947298    -0.19000
C3871       C  0.74282477  0.60496979  0.40497760    -0.20800
C3872       C  0.74252284  0.62584871  0.42370656    -0.13400
C3873       C  0.74792129  0.65243924  0.41605834     0.03300
C3874       C  0.75332812  0.65763546  0.38898583    -0.25500
H3875       H  0.76634493  0.62548965  0.30445444     0.08400
H3876       H  0.76457822  0.66208781  0.33689927     0.12000
H3877       H  0.74557443  0.56884033  0.36581710     0.11900
H3878       H  0.73865531  0.58470115  0.41150075     0.11700
H3879       H  0.73813758  0.62112028  0.44423659     0.12200
H3880       H  0.75753486  0.67793105  0.38256618     0.14100
C3881       C  0.90717343  0.66536938  0.25143194    -0.05900
C3882       C  0.88097919  0.67401424  0.25763595    -0.05800
C3883       C  0.85955488  0.65585453  0.25784899    -0.24000
C3884       C  0.86384083  0.62875618  0.25155664     0.18200
C3885       C  0.89008948  0.61989671  0.24542876     0.15500
C3886       C  0.91153322  0.63816161  0.24554203    -0.19000
C3887       C  0.89448704  0.59289540  0.23908460    -0.20800
C3888       C  0.87311964  0.57476362  0.23875593    -0.13400
C3889       C  0.84681295  0.58321721  0.24469722     0.03300
C3890       C  0.84237029  0.61039104  0.25113607    -0.25500
H3891       H  0.87704134  0.69483650  0.26246712     0.08400
H3892       H  0.83962117  0.66304420  0.26274367     0.12000
H3893       H  0.93155637  0.63123366  0.24059428     0.11900
H3894       H  0.91448040  0.58578155  0.23431433     0.11700
H3895       H  0.87723804  0.55404155  0.23369738     0.12200
H3896       H  0.82230104  0.61721457  0.25602866     0.14100
C3897       C  0.91859660  0.84309646  0.24365575    -0.05900
C3898       C  0.92657476  0.86892396  0.23573935    -0.05800
C3899       C  0.90822911  0.89006143  0.23550847    -0.24000
C3900       C  0.88165770  0.88584045  0.24348097     0.18200
C3901       C  0.87337553  0.85996488  0.25147855     0.15500
C3902       C  0.89181867  0.83873300  0.25132537    -0.19000
C3903       C  0.84685557  0.85582819  0.25970753    -0.20800
C3904       C  0.82870427  0.87713283  0.25992376    -0.13400
C3905       C  0.83675102  0.90297826  0.25192989     0.03300
C3906       C  0.86331672  0.90713586  0.24370948    -0.25500
H3907       H  0.94705478  0.87281693  0.22965432     0.08400
H3908       H  0.91488454  0.90976097  0.22929898     0.12000
H3909       H  0.88544292  0.81897625  0.25768849     0.11900
H3910       H  0.84016833  0.83616741  0.26601970     0.11700
H3911       H  0.80834252  0.87333849  0.26646784     0.12200
H3912       H  0.86970700  0.92687290  0.23731528     0.14100
C3913       C  0.66234637  0.58613228  0.24664901    -0.05900
C3914       C  0.64189309  0.58112767  0.22804943    -0.05800
C3915       C  0.61900726  0.59720732  0.22709208    -0.24000
C3916       C  0.61593272  0.61854647  0.24493090     0.18200
C3917       C  0.63631660  0.62368649  0.26398877     0.15500
C3918       C  0.65949267  0.60742079  0.26475903    -0.19000
C3919       C  0.63314538  0.64512971  0.28172873    -0.20800
C3920       C  0.61061282  0.66175267  0.27989498    -0.13400
C3921       C  0.59057408  0.65721053  0.26071184     0.03300
C3922       C  0.59306482  0.63513981  0.24360686    -0.25500
H3923       H  0.64362621  0.56451150  0.21421717     0.08400
H3924       H  0.60368799  0.59291587  0.21238438     0.12000
H3925       H  0.67489855  0.61091848  0.27961783     0.11900
H3926       H  0.64828735  0.64938161  0.29664438     0.11700
H3927       H  0.60881330  0.67837425  0.29341390     0.12200
H3928       H  0.57787551  0.63163619  0.22854698     0.14100
C3929       C  0.65894024  0.91188570  0.25886871    -0.05900
C3930       C  0.63284421  0.92114253  0.26450255    -0.05800
C3931       C  0.61123297  0.90341870  0.26525203    -0.24000
C3932       C  0.61527234  0.87609948  0.26031928     0.18200
C3933       C  0.64149195  0.86644064  0.25522971     0.15500
C3934       C  0.66317118  0.88434815  0.25465356    -0.19000
C3935       C  0.64552612  0.83909150  0.25038106    -0.20800
C3936       C  0.62375191  0.82154771  0.25017562    -0.13400
C3937       C  0.59751244  0.83103398  0.25473944     0.03300
C3938       C  0.59346456  0.85836657  0.26005389    -0.25500
H3939       H  0.62902653  0.94221637  0.26816283     0.08400
H3940       H  0.59131833  0.91114176  0.26936706     0.12000
H3941       H  0.68315966  0.87691805  0.25030849     0.11900
H3942       H  0.66546017  0.83130628  0.24647711     0.11700
H3943       H  0.62747933  0.80054849  0.24600512     0.12200
H3944       H  0.57339217  0.86587542  0.26386148     0.14100
C3945       C  0.84790507  0.75001929  0.08249950    -0.05900
C3946       C  0.87399395  0.74637415  0.07203432    -0.05800
C3947       C  0.89662724  0.74700503  0.08842421    -0.24000
C3948       C  0.89383408  0.75128069  0.11575141     0.18200
C3949       C  0.86783733  0.75552793  0.12640231     0.15500
C3950       C  0.84509975  0.75489225  0.10980842    -0.19000
C3951       C  0.86489667  0.76000816  0.15360746    -0.20800
C3952       C  0.88722101  0.75952753  0.17023303    -0.13400
C3953       C  0.91325097  0.75453241  0.16020387     0.03300
C3954       C  0.91645299  0.75089792  0.13266983    -0.25500
H3955       H  0.87707096  0.74281369  0.05101656     0.08400
H3956       H  0.91628157  0.74386933  0.07972485     0.12000
H3957       H  0.82529612  0.75801241  0.11819806     0.11900
H3958       H  0.84523548  0.76351987  0.16215479     0.11700
H3959       H  0.88382740  0.76279223  0.19124680     0.12200
H3960       H  0.93626065  0.74719790  0.12452768     0.14100
C3961       C  0.59870464  0.74963960  0.16732598    -0.05900
C3962       C  0.62477949  0.74381995  0.17662146    -0.05800
C3963       C  0.64701220  0.74531345  0.15971960    -0.24000
C3964       C  0.64379822  0.75284119  0.13310884     0.18200
C3965       C  0.61795631  0.76008230  0.12386207     0.15500
C3966       C  0.59560459  0.75840954  0.14094511    -0.19000
C3967       C  0.61479739  0.76823531  0.09745503    -0.20800
C3968       C  0.63659681  0.76769302  0.07999288    -0.13400
C3969       C  0.66221412  0.75918812  0.08848716     0.03300
C3970       C  0.66579690  0.75252428  0.11542958    -0.25500
H3971       H  0.62802839  0.73756255  0.19696228     0.08400
H3972       H  0.66666806  0.74009668  0.16737142     0.12000
H3973       H  0.57582975  0.76370603  0.13362167     0.11900
H3974       H  0.59529622  0.77437544  0.09008428     0.11700
H3975       H  0.63321096  0.77355072  0.05955341     0.12200
H3976       H  0.68537087  0.74613633  0.12240328     0.14100
C3977       C  0.65865734  0.75018266  0.41509360    -0.05900
C3978       C  0.63649414  0.76643677  0.42186657    -0.05800
C3979       C  0.61352601  0.76724438  0.40593933    -0.24000
C3980       C  0.61222786  0.75210495  0.38254192     0.18200
C3981       C  0.63429485  0.73554677  0.37553315     0.15500
C3982       C  0.65722916  0.73439446  0.39198593    -0.19000
C3983       C  0.63357193  0.72143429  0.35151897    -0.20800
C3984       C  0.61213191  0.72497117  0.33402932    -0.13400
C3985       C  0.58994542  0.74111039  0.34071709     0.03300
C3986       C  0.58979233  0.75415111  0.36547987    -0.25500
H3987       H  0.63697907  0.77879708  0.43960666     0.08400
H3988       H  0.59702009  0.78019262  0.41165410     0.12000
H3989       H  0.67392354  0.72146147  0.38674713     0.11900
H3990       H  0.65021484  0.70874800  0.34561039     0.11700
H3991       H  0.61321615  0.71553674  0.31480786     0.12200
H3992       H  0.57305225  0.76700642  0.37075323     0.14100
C3993       C  0.90565397  0.74722673  0.33199743    -0.05900
C3994       C  0.87906293  0.74923860  0.32246392    -0.05800
C3995       C  0.85715629  0.74736777  0.33977278    -0.24000
C3996       C  0.86127732  0.74330803  0.36701819     0.18200
C3997       C  0.88779790  0.74027011  0.37664811     0.15500
C3998       C  0.90972760  0.74224894  0.35917706    -0.19000
C3999       C  0.89204502  0.73576464  0.40373997    -0.20800
C4000       C  0.87041915  0.73535102  0.42132572    -0.13400
C4001       C  0.84390976  0.73932788  0.41230585     0.03300
C4002       C  0.83945839  0.74277093  0.38487067    -0.25500
H4003       H  0.87509266  0.75257596  0.30157014     0.08400
H4004       H  0.83701175  0.74943047  0.33187719     0.12000
H4005       H  0.92996170  0.74011083  0.36683711     0.11900
H4006       H  0.91218261  0.73304281  0.41145187     0.11700
H4007       H  0.87462279  0.73225122  0.44221032     0.12200
H4008       H  0.81921886  0.74575463  0.37750755     0.14100
C4009       C  0.90760378  0.91317097  0.99734960    -0.05900
C4010       C  0.88235981  0.92134778  0.98785460    -0.05800
C4011       C  0.86113365  0.90317206  0.98612491    -0.24000
C4012       C  0.86468102  0.87649485  0.99403112     0.18200
C4013       C  0.89000580  0.86795394  0.00350010     0.15500
C4014       C  0.90894530  0.89036606  0.50676298    -0.19000
C4015       C  0.89332306  0.84447551  0.51034906    -0.20800
C4016       C  0.87278468  0.82562107  0.50818699    -0.13400
C4017       C  0.84687124  0.83143534  0.00041004     0.03300
C4018       C  0.84329387  0.85824837  0.99262218    -0.25500
H4019       H  0.87903176  0.94183514  0.98155437     0.08400
H4020       H  0.84189699  0.91002803  0.97870746     0.12000
H4021       H  0.92876792  0.88387029  0.51292326     0.11900
H4022       H  0.91313240  0.83792479  0.51646281     0.11700
H4023       H  0.87719466  0.80490530  0.51289681     0.12200
H4024       H  0.82397063  0.86487259  0.98517627     0.14100
C4025       C  0.83702730  0.65311840  0.00172916    -0.05900
C4026       C  0.82926909  0.62752613  0.50226231    -0.05800
C4027       C  0.84743820  0.60623971  0.50164680    -0.24000
C4028       C  0.87501172  0.61113257  0.49934363     0.18200
C4029       C  0.88293868  0.63709499  0.99550568     0.15500
C4030       C  0.86410959  0.65804766  0.99532050    -0.19000
C4031       C  0.90992851  0.64186436  0.98913517    -0.20800
C4032       C  0.92851267  0.62081790  0.98937792    -0.13400
C4033       C  0.92042134  0.59459681  0.99591060     0.03300
C4034       C  0.89328543  0.58971786  0.49881562    -0.25500
H4035       H  0.80809347  0.62295646  0.50403663     0.08400
H4036       H  0.83988586  0.58590615  0.50297024     0.12000
H4037       H  0.87055068  0.67810589  0.99003969     0.11900
H4038       H  0.91666522  0.66185002  0.98397828     0.11700
H4039       H  0.94920907  0.62506450  0.98431764     0.12200
H4040       H  0.88581436  0.56936563  0.50038211     0.14100
C4041       C  0.66722021  0.84134293  0.99602666    -0.05900
C4042       C  0.67800664  0.87070139  0.49460093    -0.05800
C4043       C  0.65936503  0.89162833  0.49534715    -0.24000
C4044       C  0.63186766  0.88607170  0.49752995     0.18200
C4045       C  0.62166826  0.85863671  0.99059288     0.15500
C4046       C  0.63986639  0.83706180  0.99028616    -0.19000
C4047       C  0.59438402  0.85458094  0.98500724    -0.20800
C4048       C  0.57631398  0.87600290  0.98634039    -0.13400
C4049       C  0.58520309  0.90193750  0.99309261    -0.02300
C4050       C  0.61301207  0.90693104  0.49800146    -0.25500
H4051       H  0.69911408  0.87565507  0.49298548     0.08400
H4052       H  0.66645456  0.91214491  0.49419308     0.12000
H4053       H  0.63275451  0.81705601  0.98555159     0.11900
H4054       H  0.58695599  0.83479438  0.97991980     0.11700
H4055       H  0.55531963  0.87221288  0.98213930     0.12200
H4056       H  0.61999824  0.92748088  0.49675972     0.14100
C4057       C  0.65757636  0.66319378  0.99947923    -0.05900
C4058       C  0.63458468  0.66986559  0.48557372    -0.05800
C4059       C  0.61421593  0.65077434  0.48247282    -0.24000
C4060       C  0.61720897  0.62489544  0.49293746     0.18200
C4061       C  0.64174253  0.61690124  0.00088676     0.15500
C4062       C  0.66257046  0.63567206  0.00324037    -0.19000
C4063       C  0.64664691  0.58952115  0.00488667    -0.20800
C4064       C  0.62563432  0.57104077  0.00322099    -0.13400
C4065       C  0.59931917  0.57965057  0.99765210     0.03300
C4066       C  0.59663979  0.60575067  0.49015458    -0.25500
H4067       H  0.63177077  0.68958993  0.47704677     0.08400
H4068       H  0.59608959  0.65626984  0.47187689     0.12000
H4069       H  0.68260906  0.62880851  0.00818982     0.11900
H4070       H  0.66666693  0.58243396  0.00956997     0.11700
H4071       H  0.62993507  0.55006426  0.00680346     0.12200
H4072       H  0.57833764  0.61109110  0.47976065     0.14100
C4073       C  0.84824458  0.49784017  0.33232250    -0.05900
C4074       C  0.87461309  0.49380766  0.32293101    -0.05800
C4075       C  0.89633581  0.49348639  0.34046979    -0.24000
C4076       C  0.89212669  0.49709853  0.36776118     0.18200
C4077       C  0.86451481  0.00268913  0.37839844     0.15500
C4078       C  0.84281564  0.00244590  0.36070872    -0.19000
C4079       C  0.86014524  0.00652414  0.40557352    -0.20800
C4080       C  0.88168717  0.00623220  0.42322924    -0.13400
C4081       C  0.90932570  0.50010873  0.41310309     0.03300
C4082       C  0.91380395  0.49684188  0.38564709    -0.25500
H4083       H  0.87856087  0.49092904  0.30195000     0.08400
H4084       H  0.91638870  0.49041406  0.33268361     0.12000
H4085       H  0.82261868  0.00538695  0.36819645     0.11900
H4086       H  0.84002996  0.00952186  0.41322652     0.11700
H4087       H  0.87754218  0.00896625  0.44418086     0.12200
H4088       H  0.93402033  0.49393088  0.37819922     0.14100
C4089       C  0.58613438  0.49426582  0.40358431    -0.05900
C4090       C  0.57644704  0.49830341  0.37749588    -0.05800
C4091       C  0.59410342  0.50095710  0.35603967    -0.24000
C4092       C  0.62190374  0.49956578  0.36008328     0.18200
C4093       C  0.63043826  0.99581442  0.38539984     0.15500
C4094       C  0.61255434  0.99301370  0.40682450    -0.19000
C4095       C  0.65813257  0.99599144  0.38989468    -0.20800
C4096       C  0.67597189  0.99831333  0.36869676    -0.13400
C4097       C  0.66785672  0.50024665  0.34289225     0.03300
C4098       C  0.63993280  0.50196647  0.33861256    -0.25500
H4099       H  0.55510487  0.49970455  0.37358704     0.08400
H4100       H  0.58599077  0.50411167  0.33630002     0.12000
H4101       H  0.62039921  0.99114942  0.42683040     0.11900
H4102       H  0.66606600  0.99405792  0.40985593     0.11700
H4103       H  0.69725873  0.99791725  0.37306593     0.12200
H4104       H  0.63223197  0.50495778  0.31868083     0.14100
C4105       C  0.59556890  0.49973311  0.08537568    -0.05900
C4106       C  0.62161783  0.50548357  0.07597079    -0.05800
C4107       C  0.64356429  0.50659342  0.09328190    -0.24000
C4108       C  0.64010537  0.50180360  0.12046527     0.18200
C4109       C  0.61538256  0.99385382  0.12847888     0.15500
C4110       C  0.59314579  0.99362640  0.11109608    -0.19000
C4111       C  0.61176640  0.99023650  0.15580702    -0.20800
C4112       C  0.63375383  0.99054410  0.17304442    -0.13400
C4113       C  0.65874029  0.49670139  0.16515121     0.03300
C4114       C  0.66229780  0.50180155  0.13787650    -0.25500
H4115       H  0.62514974  0.50909820  0.05505072     0.08400
H4116       H  0.66331164  0.51086914  0.08531744     0.12000
H4117       H  0.57314298  0.99056171  0.11899223     0.11900
H4118       H  0.59185928  0.98718818  0.16392082     0.11700
H4119       H  0.63004203  0.98764814  0.19404075     0.12200
H4120       H  0.68223440  0.50578534  0.13020186     0.14100
C4121       C  0.84270498  0.49236916  0.16012116    -0.05900
C4122       C  0.86879591  0.98260209  0.16964496    -0.05800
C4123       C  0.89099484  0.98302601  0.15281531    -0.24000
C4124       C  0.88908110  0.99467006  0.12767210     0.18200
C4125       C  0.86284625  0.50373589  0.11743441     0.15500
C4126       C  0.84036803  0.50318086  0.13445658    -0.19000
C4127       C  0.86090303  0.51454818  0.09187373    -0.20800
C4128       C  0.88338708  0.51505601  0.07527213    -0.13400
C4129       C  0.90844941  0.50501470  0.08392089     0.03300
C4130       C  0.91146581  0.99486841  0.11063971    -0.25500
H4131       H  0.87107101  0.97343202  0.18900593     0.08400
H4132       H  0.90969814  0.97421393  0.15950933     0.12000
H4133       H  0.82140112  0.51164006  0.12801028     0.11900
H4134       H  0.84200339  0.52250097  0.08466683     0.11700
H4135       H  0.88109103  0.52336015  0.05552894     0.12200
H4136       H  0.93015762  0.98572181  0.11693584     0.14100
C4137       C  0.50321647  0.58028132  0.40361796    -0.05900
C4138       C  0.00254295  0.57104518  0.37711737    -0.05800
C4139       C  0.00133921  0.58909471  0.35589557    -0.24000
C4140       C  0.00096355  0.61681018  0.36064792     0.18200
C4141       C  0.50210013  0.62633826  0.38705281     0.15500
C4142       C  0.50336694  0.60811253  0.40831803    -0.19000
C4143       C  0.50217508  0.65400947  0.39184131    -0.20800
C4144       C  0.50070833  0.67207750  0.37071342    -0.13400
C4145       C  0.49903719  0.66296367  0.34418984     0.03300
C4146       C  0.99944825  0.63513759  0.33941982    -0.25500
H4147       H  0.00270101  0.54977863  0.37267072     0.08400
H4148       H  0.00059566  0.58135015  0.33575952     0.12000
H4149       H  0.50421649  0.61565849  0.42852587     0.11900
H4150       H  0.50340525  0.66171958  0.41196838     0.11700
H4151       H  0.50101851  0.69331553  0.37526640     0.12200
H4152       H  0.99857736  0.62768607  0.31918091     0.14100
C4153       C  0.50100912  0.84201045  0.33513127    -0.05900
C4154       C  0.50978250  0.86765190  0.32744460    -0.05800
C4155       C  0.50979575  0.88882831  0.34553152    -0.24000
C4156       C  0.50102448  0.88474471  0.37160402     0.18200
C4157       C  0.99221161  0.85915581  0.37950964     0.15500
C4158       C  0.99227338  0.83794310  0.36121686    -0.19000
C4159       C  0.98390064  0.85503977  0.40576459    -0.20800
C4160       C  0.98450251  0.87619018  0.42399016    -0.13400
C4161       C  0.49308254  0.90178119  0.41619770     0.03300
C4162       C  0.50128554  0.90590998  0.38987590    -0.25500
H4163       H  0.51694048  0.87133438  0.30746414     0.08400
H4164       H  0.51681011  0.90835344  0.33916619     0.12000
H4165       H  0.98547727  0.81825528  0.36735723     0.11900
H4166       H  0.97718357  0.83545069  0.41225335     0.11700
H4167       H  0.97817918  0.87245151  0.44423340     0.12200
H4168       H  0.50837104  0.92548247  0.38369340     0.14100
C4169       C  0.51137389  0.83906357  0.16219308    -0.05900
C4170       C  0.01999770  0.86432579  0.17143089    -0.05800
C4171       C  0.02020145  0.88665453  0.15481170    -0.24000
C4172       C  0.01164552  0.88433933  0.12845780     0.18200
C4173       C  0.50344927  0.85895170  0.11871098     0.15500
C4174       C  0.50379742  0.83636135  0.13545503    -0.19000
C4175       C  0.49467542  0.85662849  0.09244486    -0.20800
C4176       C  0.49349253  0.87921188  0.07621315    -0.13400
C4177       C  0.50126521  0.90478841  0.08567488     0.03300
C4178       C  0.01068174  0.90708880  0.11190953    -0.25500
H4179       H  0.02628103  0.86708474  0.19186927     0.08400
H4180       H  0.02657469  0.90585180  0.16275826     0.12000
H4181       H  0.49726161  0.81702135  0.12796020     0.11900
H4182       H  0.48844721  0.83738297  0.08448771     0.11700
H4183       H  0.48633679  0.87651430  0.05605110     0.12200
H4184       H  0.01717560  0.92643251  0.11941646     0.14100
C4185       C  0.50530981  0.65362919  0.16544065    -0.05900
C4186       C  0.50350737  0.62709282  0.17493720    -0.05800
C4187       C  0.50547044  0.60518213  0.15764785    -0.24000
C4188       C  0.50908824  0.60918266  0.13034957     0.18200
C4189       C  0.01117929  0.63564945  0.12056626     0.15500
C4190       C  0.00928737  0.65764840  0.13811950    -0.19000
C4191       C  0.01481019  0.63969144  0.09328783    -0.20800
C4192       C  0.01532559  0.61786894  0.07577261    -0.13400
C4193       C  0.51233243  0.59133209  0.08506417     0.03300
C4194       C  0.50982326  0.58721312  0.11264242    -0.25500
H4195       H  0.50053621  0.62312287  0.19587551     0.08400
H4196       H  0.50384966  0.58508718  0.16563079     0.12000
H4197       H  0.01089941  0.67786223  0.13041766     0.11900
H4198       H  0.01672395  0.65979737  0.08539029     0.11700
H4199       H  0.01757118  0.62192044  0.05476474     0.12200
H4200       H  0.50761170  0.56703537  0.12028502     0.14100
O4201       O  0.50837723  0.54501999  0.57281194    -0.80800
O4202       O  0.50342778  0.53803378  0.92229758    -0.82300
O4203       O  0.55318886  0.56932540  0.49617623    -0.79300
O4204       O  0.96557472  0.57717068  0.49514615    -0.77700
O4205       O  0.93071378  0.54766458  0.49859338    -0.79500
O4206       O  0.58319729  0.53475202  0.49912626    -0.80500
O4207       O  0.50689997  0.57214865  0.95257093    -0.81800
O4208       O  0.50960812  0.57504930  0.53842636    -0.82100
Eu4209     Eu  0.50719913  0.55095931  0.49584540     2.39200
O4210       O  0.97740511  0.52620480  0.97145625    -0.89600
O4211       O  0.53198323  0.52211742  0.52352521    -0.93200
C4212       C  0.50965328  0.56925014  0.56344179     1.01500
C4213       C  0.50528115  0.56299732  0.92847659     1.01300
C4214       C  0.57729616  0.55997867  0.49838127     1.01300
C4215       C  0.94031050  0.57165787  0.49662289     0.99100
H4216       H  0.54302541  0.53189651  0.95924014     0.28900
O4217       O  0.53121608  0.52191695  0.97072896    -1.02000
H4218       H  0.96943893  0.53960012  0.53648695     0.28900
O4219       O  0.97955338  0.52706270  0.52582770    -1.04500
O4220       O  0.49795599  0.95018268  0.92446233    -0.81700
O4221       O  0.50035988  0.95367389  0.57640237    -0.81300
O4222       O  0.57810860  0.49115463  0.95391608    -0.79700
O4223       O  0.92629501  0.50336920  0.95678612    -0.83100
O4224       O  0.92856702  0.50423211  0.54394102    -0.80900
O4225       O  0.58080237  0.49248835  0.53985499    -0.79600
O4226       O  0.54025340  0.91786495  0.50099977    -0.81100
O4227       O  0.95081362  0.92702374  0.50221143    -0.83000
O4228       O  0.57498488  0.94755683  0.49708997    -0.79700
O4229       O  0.92106422  0.96192309  0.50102081    -0.82400
O4230       O  0.54466974  0.49216376  0.92276396    -0.78100
O4231       O  0.55071624  0.49729930  0.57393086    -0.78200
O4232       O  0.96026350  0.50033968  0.57673977    -0.77800
O4233       O  0.95715615  0.49942203  0.92347641    -0.81300
O4234       O  0.49568656  0.91944200  0.95802656    -0.80700
O4235       O  0.49416721  0.92170263  0.54425606    -0.79100
Eu4236     Eu  0.50140580  0.49551975  0.94514602     2.39800
Eu4237     Eu  0.50483377  0.49857158  0.55430657     2.39600
Eu4238     Eu  0.55709733  0.49284387  0.49667256     2.38400
Eu4239     Eu  0.94916315  0.50184223  0.50025668     2.39900
Eu4240     Eu  0.49758419  0.94330347  0.50131018     2.39800
O4241       O  0.97401542  0.97385493  0.52806990    -0.93500
O4242       O  0.52686406  0.96723108  0.97142586    -0.92400
C4243       C  0.49621502  0.92596828  0.93333433     1.01700
C4244       C  0.49591613  0.92912042  0.56868409     1.00400
C4245       C  0.56957915  0.49091487  0.92960353     0.99800
C4246       C  0.93285305  0.50180670  0.93214173     1.01800
C4247       C  0.93570194  0.50286899  0.56849397     1.00700
C4248       C  0.57494022  0.49460510  0.56483869     0.99600
C4249       C  0.56553158  0.92360873  0.49923973     0.99600
C4250       C  0.92673537  0.93672389  0.50156504     1.02200
H4251       H  0.53925189  0.95714219  0.53700770     0.29600
O4252       O  0.52854780  0.96888734  0.52608585    -1.05700
H4253       H  0.95993718  0.96006486  0.96192605     0.31700
O4254       O  0.97201125  0.97074762  0.97261137    -1.08200
O4255       O  0.50533228  0.70183869  0.67414267    -0.80800
O4256       O  0.50002069  0.70627256  0.82765965    -0.82300
O4257       O  0.54586564  0.66905945  0.74949522    -0.79300
O4258       O  0.95633197  0.67355610  0.75026878    -0.77700
O4259       O  0.92625980  0.70824944  0.75054149    -0.79500
O4260       O  0.57781519  0.70186286  0.74814646    -0.80500
O4261       O  0.50095728  0.67232640  0.79695039    -0.81800
O4262       O  0.50400015  0.67099360  0.70776196    -0.82100
Eu4263     Eu  0.50181381  0.69292487  0.75165141     2.39200
O4264       O  0.97548840  0.72238132  0.77759132    -0.89600
O4265       O  0.52927988  0.71949213  0.72436714    -0.93200
C4266       C  0.50532194  0.67738788  0.68289624     1.01500
C4267       C  0.50025583  0.68127261  0.82122585     1.01300
C4268       C  0.57050715  0.67719019  0.74740485     1.01300
C4269       C  0.93216228  0.68304519  0.75042131     0.99100
H4270       H  0.53967305  0.70798755  0.78978247     0.28900
O4271       O  0.52900956  0.71981553  0.77882140    -1.02000
H4272       H  0.96516268  0.71052941  0.71223178     0.28900
O4273       O  0.97683733  0.72143231  0.72317428    -1.04500
O4274       O  0.50594534  0.79378907  0.82606522    -0.81700
O4275       O  0.50503205  0.79229717  0.67348232    -0.81300
O4276       O  0.57855275  0.74111368  0.79470378    -0.79700
O4277       O  0.92644602  0.75355293  0.79138152    -0.83100
O4278       O  0.92868563  0.75009320  0.70694730    -0.80900
O4279       O  0.58099277  0.74305610  0.70956496    -0.79600
O4280       O  0.55242416  0.82128658  0.74907738    -0.81100
O4281       O  0.96425349  0.82644749  0.74648315    -0.83000
O4282       O  0.58261577  0.78691331  0.75084300    -0.79700
O4283       O  0.93039511  0.79556926  0.74594429    -0.82400
O4284       O  0.54701551  0.74345855  0.82765197    -0.78100
O4285       O  0.55063469  0.74433444  0.67548928    -0.78200
O4286       O  0.95965025  0.74864827  0.67345983    -0.77800
O4287       O  0.95679582  0.74971656  0.82524668    -0.81300
O4288       O  0.50956798  0.82506114  0.79295152    -0.80700
O4289       O  0.50806978  0.82376464  0.70664968    -0.79100
Eu4290     Eu  0.50280590  0.74913569  0.80524327     2.39800
Eu4291     Eu  0.50473403  0.74714971  0.69509390     2.39600
Eu4292     Eu  0.55702716  0.74547599  0.75152237     2.38400
Eu4293     Eu  0.95088656  0.75077990  0.74957831     2.39900
Eu4294     Eu  0.50707404  0.80208688  0.74992584     2.39800
O4295       O  0.97935180  0.77591986  0.72231135    -0.93500
O4296       O  0.53215283  0.77462878  0.77855254    -0.92400
C4297       C  0.50858494  0.81809609  0.81760889     1.01700
C4298       C  0.50664941  0.81686105  0.68198947     1.00400
C4299       C  0.57147411  0.74061043  0.81928588     0.99800
C4300       C  0.93247335  0.75182523  0.81620536     1.01800
C4301       C  0.93516526  0.74940517  0.68225609     1.00700
C4302       C  0.57493488  0.74285244  0.68470743     0.99600
C4303       C  0.57659095  0.81193997  0.74937330     0.99600
C4304       C  0.93919845  0.81991550  0.74518656     1.02200
H4305       H  0.54480729  0.78381210  0.71201889     0.29600
O4306       O  0.53271042  0.77342598  0.72285118    -1.05700
H4307       H  0.96674177  0.78973791  0.78763057     0.31700
O4308       O  0.97773930  0.77767410  0.77722838    -1.08200
O4309       O  0.82899698  0.99212470  0.70580218    -0.80800
O4310       O  0.67568117  0.99939110  0.70938619    -0.82300
O4311       O  0.75245751  0.94887607  0.67729594    -0.79300
O4312       O  0.75052469  0.53768993  0.67357998    -0.77700
O4313       O  0.75212324  0.57205348  0.70378893    -0.79500
O4314       O  0.74983291  0.91850758  0.71125529    -0.80500
O4315       O  0.70633336  0.99556712  0.67571137    -0.81800
O4316       O  0.79714491  0.99372290  0.67312813    -0.82100
Eu4317     Eu  0.75206094  0.99458758  0.69585053     2.39200
O4318       O  0.72668141  0.52179569  0.72412588    -0.89600
O4319       O  0.77799414  0.96709682  0.72394581    -0.93200
C4320       C  0.82190562  0.99246884  0.68126062     1.01500
C4321       C  0.68193278  0.99769741  0.68448852     1.01300
C4322       C  0.75127069  0.92466867  0.68633282     1.01300
C4323       C  0.75072631  0.56294491  0.67973419     0.99100
H4324       H  0.71255488  0.95895770  0.71541200     0.28900
O4325       O  0.72449464  0.97019639  0.72563792    -1.02000
H4326       H  0.79152982  0.53272025  0.70943689     0.28900
O4327       O  0.78056691  0.52228307  0.72135109    -1.04500
O4328       O  0.67864535  0.00023459  0.79771798    -0.81700
O4329       O  0.83157349  0.99744029  0.78934864    -0.81300
O4330       O  0.70555770  0.92292349  0.75515169    -0.79700
O4331       O  0.70918333  0.57317446  0.74811796    -0.83100
O4332       O  0.80031788  0.57186471  0.74604256    -0.80900
O4333       O  0.79277381  0.91846851  0.75443033    -0.79600
O4334       O  0.75559605  0.95888802  0.82945872    -0.81100
O4335       O  0.75489508  0.54411904  0.82525293    -0.83000
O4336       O  0.75127231  0.92446112  0.79961610    -0.79700
O4337       O  0.75449218  0.57468842  0.79145206    -0.82400
O4338       O  0.67506589  0.95710929  0.75360789    -0.78100
O4339       O  0.82659174  0.94917937  0.75062516    -0.78200
O4340       O  0.83156812  0.53821449  0.74482197    -0.77800
O4341       O  0.67850553  0.53938909  0.75288833    -0.81300
O4342       O  0.71272161  0.00168429  0.82818838    -0.80700
O4343       O  0.80128298  0.00192796  0.82311679    -0.79100
Eu4344     Eu  0.69918530  0.99949186  0.75249795     2.39800
Eu4345     Eu  0.80678290  0.99486225  0.74841523     2.39600
Eu4346     Eu  0.75053956  0.94306865  0.75389274     2.38400
Eu4347     Eu  0.75451095  0.55139088  0.74817608     2.39900
Eu4348     Eu  0.75548133  0.00092932  0.80425142     2.39800
O4349       O  0.78294482  0.52509746  0.77521040    -0.93500
O4350       O  0.72583061  0.97292795  0.78043452    -0.92400
C4351       C  0.68761441  0.00104699  0.82191943     1.01700
C4352       C  0.82549705  0.00019189  0.81396755     1.00400
C4353       C  0.68131898  0.93207609  0.75440311     0.99800
C4354       C  0.68482005  0.56428893  0.75075913     1.01800
C4355       C  0.82487250  0.56320439  0.74462746     1.00700
C4356       C  0.81777618  0.92483421  0.75275144     0.99600
C4357       C  0.75353074  0.93374593  0.82359713     0.99600
C4358       C  0.75422622  0.56835771  0.81636147     1.02200
H4359       H  0.79142252  0.95973228  0.78950741     0.29600
O4360       O  0.78013442  0.97054664  0.77820275    -1.05700
H4361       H  0.71742199  0.53658425  0.78844541     0.31700
O4362       O  0.72846694  0.52515260  0.77744411    -1.08200
O4363       O  0.70386055  0.67380369  0.00379952    -0.80800
O4364       O  0.71190196  0.82507167  0.99526197    -0.82300
O4365       O  0.67700423  0.75131927  0.54288944    -0.79300
O4366       O  0.67660160  0.75055309  0.95794477    -0.77700
O4367       O  0.70667828  0.74402249  0.92422730    -0.79500
O4368       O  0.70816155  0.75060303  0.57625086    -0.80500
O4369       O  0.67763314  0.79473127  0.99771508    -0.81800
O4370       O  0.67360123  0.70809580  0.00076706    -0.82100
Eu4371     Eu  0.69883338  0.75041910  0.00084560     2.39200
O4372       O  0.72675333  0.77374094  0.97128541    -0.89600
O4373       O  0.72478968  0.72460167  0.52923976    -0.93200
C4374       C  0.67970301  0.68295092  0.00170508     1.01500
C4375       C  0.68673777  0.81889905  0.99616401     1.01300
C4376       C  0.68360116  0.75044707  0.56759304     1.01300
C4377       C  0.68259182  0.74755539  0.93325196     0.99100
H4378       H  0.71695223  0.79113235  0.53626800     0.28900
O4379       O  0.72775847  0.77881759  0.52599716    -1.02000
H4380       H  0.71175511  0.70884971  0.96478016     0.28900
O4381       O  0.72376913  0.72004813  0.97499082    -1.04500
O4382       O  0.80033212  0.82147832  0.99733724    -0.81700
O4383       O  0.79203064  0.66884222  0.00323280    -0.81300
O4384       O  0.75415000  0.79757471  0.57324387    -0.79700
O4385       O  0.75291869  0.78628914  0.92088856    -0.83100
O4386       O  0.75005786  0.69700198  0.92771441    -0.80900
O4387       O  0.75430430  0.70990688  0.58045825    -0.79600
O4388       O  0.83013018  0.74992155  0.54281961    -0.81100
O4389       O  0.82788903  0.73862219  0.95478137    -0.83000
O4390       O  0.79898226  0.75368892  0.57604129    -0.79700
O4391       O  0.79600647  0.73913783  0.92210079    -0.82400
O4392       O  0.75759544  0.82750042  0.53899363    -0.78100
O4393       O  0.75018016  0.67557544  0.55044133    -0.78200
O4394       O  0.74758983  0.66738582  0.96230363    -0.77800
O4395       O  0.75554426  0.82071956  0.95099136    -0.81300
O4396       O  0.83042460  0.78687469  0.99847374    -0.80700
O4397       O  0.82603856  0.69936627  0.99977268    -0.79100
Eu4398     Eu  0.75532371  0.80167227  0.99616544     2.39800
Eu4399     Eu  0.74918413  0.69316641  0.00398426     2.39600
Eu4400     Eu  0.75352202  0.75181089  0.55501112     2.38400
Eu4401     Eu  0.75176364  0.74334058  0.94504306     2.39900
Eu4402     Eu  0.80595397  0.74412736  0.99796638     2.39800
O4403       O  0.77702114  0.71630039  0.97392954    -0.93500
O4404       O  0.78147097  0.77567555  0.52562594    -0.92400
C4405       C  0.82443935  0.81206360  0.99856459     1.01700
C4406       C  0.81710952  0.67516481  0.00154222     1.00400
C4407       C  0.75626122  0.82162707  0.56398767     0.99800
C4408       C  0.75444935  0.81147966  0.92696597     1.01800
C4409       C  0.74845523  0.67298340  0.93726685     1.00700
C4410       C  0.75244623  0.68474203  0.57455127     0.99600
C4411       C  0.82352497  0.75304815  0.56740834     0.99600
C4412       C  0.82069307  0.73762014  0.93018652     1.02200
H4413       H  0.79023905  0.71059395  0.54075177     0.29600
O4414       O  0.77912763  0.72143065  0.52929278    -1.05700
H4415       H  0.79249566  0.78135068  0.95796428     0.31700
O4416       O  0.78066750  0.77158238  0.96965354    -1.08200
C4417       C  0.75309913  0.66519998  0.59715297    -0.05900
C4418       C  0.75703426  0.67423537  0.62348821    -0.05800
C4419       C  0.75721666  0.65623553  0.64484024    -0.24000
C4420       C  0.75335335  0.62869930  0.64050491     0.18200
C4421       C  0.74955462  0.61927080  0.61425243     0.15500
C4422       C  0.74965526  0.63745660  0.59280283    -0.19000
C4423       C  0.74549946  0.59177972  0.60989269    -0.20800
C4424       C  0.74547053  0.57377571  0.63118117    -0.13400
C4425       C  0.74960905  0.58270833  0.65744872     0.03300
C4426       C  0.75328779  0.61044687  0.66192008    -0.25500
H4427       H  0.75993449  0.69534802  0.62770824     0.08400
H4428       H  0.76025013  0.66390856  0.66479338     0.12000
H4429       H  0.74674575  0.62998046  0.57276161     0.11900
H4430       H  0.74238038  0.58413969  0.58994682     0.11700
H4431       H  0.74233726  0.55269953  0.62695397     0.12200
H4432       H  0.75641803  0.61784195  0.68196480     0.14100
C4433       C  0.75151683  0.90241830  0.66660793    -0.05900
C4434       C  0.74389393  0.87636200  0.67411751    -0.05800
C4435       C  0.74338255  0.85551835  0.65550194    -0.24000
C4436       C  0.75073626  0.86020868  0.62903700     0.18200
C4437       C  0.75893766  0.88612912  0.62125666     0.15500
C4438       C  0.75918618  0.90707664  0.64003584    -0.19000
C4439       C  0.76658528  0.89064078  0.59479426    -0.20800
C4440       C  0.76568169  0.86975828  0.57613820    -0.13400
C4441       C  0.75721772  0.84393415  0.58361340     0.03300
C4442       C  0.74992272  0.83937163  0.61024977    -0.25500
H4443       H  0.73791635  0.87211608  0.69436069     0.08400
H4444       H  0.73712114  0.83572001  0.66180086     0.12000
H4445       H  0.76538621  0.92696572  0.63393548     0.11900
H4446       H  0.77316494  0.91033614  0.58849783     0.11700
H4447       H  0.77174880  0.87381297  0.55587925     0.12200
H4448       H  0.74337276  0.81961317  0.61640733     0.14100
C4449       C  0.75382401  0.91429136  0.84601676    -0.05900
C4450       C  0.75221542  0.92331471  0.87254931    -0.05800
C4451       C  0.75227737  0.90509909  0.89365833    -0.24000
C4452       C  0.75402189  0.87745242  0.88873224     0.18200
C4453       C  0.75597582  0.86815102  0.86225223     0.15500
C4454       C  0.75578176  0.88654424  0.84113289    -0.19000
C4455       C  0.75794896  0.84055073  0.85728657    -0.20800
C4456       C  0.75749267  0.82226237  0.87827894    -0.13400
C4457       C  0.75517846  0.83114941  0.90476497     0.03300
C4458       C  0.75366873  0.85895270  0.90979103    -0.25500
H4459       H  0.75069325  0.94451462  0.87705648     0.08400
H4460       H  0.75084692  0.91264395  0.91383205     0.12000
H4461       H  0.75721210  0.87919081  0.82089030     0.11900
H4462       H  0.75968391  0.83306875  0.83711782     0.11700
H4463       H  0.75896935  0.80107984  0.87369338     0.12200
H4464       H  0.75196933  0.86624497  0.93003749     0.14100
C4465       C  0.75305052  0.59059451  0.83598742    -0.05900
C4466       C  0.75748137  0.61709076  0.82759678    -0.05800
C4467       C  0.75685509  0.63830044  0.84568374    -0.24000
C4468       C  0.75186167  0.63352777  0.87262079     0.18200
C4469       C  0.74718775  0.60706765  0.88146375     0.15500
C4470       C  0.74765674  0.58573482  0.86307640    -0.19000
C4471       C  0.74255064  0.60246294  0.90857722    -0.20800
C4472       C  0.74296022  0.62381914  0.92672740    -0.13400
C4473       C  0.74764654  0.65025752  0.91807934     0.03300
C4474       C  0.75185830  0.65485555  0.89084268    -0.25500
H4475       H  0.76174736  0.62150182  0.80696983     0.08400
H4476       H  0.76055504  0.65846480  0.83860412     0.12000
H4477       H  0.74399740  0.56545115  0.86988402     0.11900
H4478       H  0.73890909  0.58233445  0.91579443     0.11700
H4479       H  0.73958909  0.61959131  0.94755713     0.12200
H4480       H  0.75557083  0.67502686  0.88376189     0.14100
C4481       C  0.90943815  0.66381527  0.75059874    -0.05900
C4482       C  0.88424370  0.67179492  0.76048546    -0.05800
C4483       C  0.86261815  0.65393303  0.76081036    -0.24000
C4484       C  0.86565823  0.62770655  0.75116411     0.18200
C4485       C  0.89089161  0.61940100  0.74121100     0.15500
C4486       C  0.91260469  0.63747430  0.74097456    -0.19000
C4487       C  0.89400504  0.59307412  0.73188260    -0.20800
C4488       C  0.87248737  0.57505055  0.73279018    -0.13400
C4489       C  0.84722597  0.58300793  0.74272771     0.03300
C4490       C  0.84396411  0.60958952  0.75161338    -0.25500
H4491       H  0.88129254  0.69186036  0.76827054     0.08400
H4492       H  0.84351698  0.66062269  0.76871251     0.12000
H4493       H  0.93187426  0.63108625  0.73318356     0.11900
H4494       H  0.91315959  0.58632164  0.72413655     0.11700
H4495       H  0.87565603  0.55477856  0.72565362     0.12200
H4496       H  0.82474940  0.61600200  0.75948897     0.14100
C4497       C  0.91925363  0.84198168  0.74332166    -0.05900
C4498       C  0.92759335  0.86815500  0.73696880    -0.05800
C4499       C  0.90946584  0.88953857  0.73761848    -0.24000
C4500       C  0.88259903  0.88521619  0.74461756     0.18200
C4501       C  0.87372885  0.85888219  0.75014430     0.15500
C4502       C  0.89200601  0.83741817  0.74921148    -0.19000
C4503       C  0.84682590  0.85453558  0.75697960    -0.20800
C4504       C  0.82887783  0.87603639  0.75826836    -0.13400
C4505       C  0.83742330  0.90239666  0.75276772     0.03300
C4506       C  0.86449100  0.90679045  0.74613957    -0.25500
H4507       H  0.94831707  0.87222521  0.73188349     0.08400
H4508       H  0.91656732  0.90953150  0.73301073     0.12000
H4509       H  0.88517158  0.81735503  0.75396807     0.11900
H4510       H  0.83964348  0.83450544  0.76132266     0.11700
H4511       H  0.80819280  0.87192249  0.76348034     0.12200
H4512       H  0.87141546  0.92690141  0.74173823     0.14100
C4513       C  0.66170562  0.58308869  0.75210039    -0.05900
C4514       C  0.63795114  0.57437271  0.76465005    -0.05800
C4515       C  0.61497862  0.59029335  0.76513277    -0.24000
C4516       C  0.61508492  0.61552123  0.75319629     0.18200
C4517       C  0.63879060  0.62471125  0.74053660     0.15500
C4518       C  0.66205497  0.60852493  0.74016690    -0.19000
C4519       C  0.63877940  0.64998216  0.72856548    -0.20800
C4520       C  0.61603956  0.66628420  0.73003063    -0.13400
C4521       C  0.59269011  0.65775788  0.74341954     0.03300
C4522       C  0.59208214  0.63194237  0.75433070    -0.25500
H4523       H  0.63703598  0.55497549  0.77424072     0.08400
H4524       H  0.59714070  0.58286692  0.77498696     0.12000
H4525       H  0.68008585  0.61546262  0.73027702     0.11900
H4526       H  0.65650274  0.65737731  0.71848888     0.11700
H4527       H  0.61690908  0.68596489  0.72100457     0.12200
H4528       H  0.57425836  0.62513600  0.76466959     0.14100
C4529       C  0.65893594  0.91274314  0.75374205    -0.05900
C4530       C  0.63240497  0.92181149  0.75718740    -0.05800
C4531       C  0.61096598  0.90398285  0.75585409    -0.24000
C4532       C  0.61565965  0.87673594  0.75121356     0.18200
C4533       C  0.64217341  0.86738489  0.74727181     0.15500
C4534       C  0.66366957  0.88543324  0.74860533    -0.19000
C4535       C  0.64673144  0.84008650  0.74247592    -0.20800
C4536       C  0.62532053  0.82206792  0.74280874    -0.13400
C4537       C  0.59900043  0.83112778  0.74768318     0.03300
C4538       C  0.59427146  0.85863065  0.75115640    -0.25500
H4539       H  0.62813965  0.94276321  0.76104187     0.08400
H4540       H  0.59074557  0.91146545  0.75877781     0.12000
H4541       H  0.68398321  0.87821966  0.74557975     0.11900
H4542       H  0.66686507  0.83260711  0.73901063     0.11700
H4543       H  0.62943752  0.80099132  0.73948652     0.12200
H4544       H  0.57405789  0.86591994  0.75463550     0.14100
C4545       C  0.84612899  0.75636304  0.58653542    -0.05900
C4546       C  0.87064513  0.76738775  0.57780881    -0.05800
C4547       C  0.89290845  0.76891614  0.59474025    -0.24000
C4548       C  0.89129307  0.75915881  0.62075833     0.18200
C4549       C  0.86648589  0.74890992  0.63004343     0.15500
C4550       C  0.84405140  0.74775617  0.61300039    -0.19000
C4551       C  0.86464014  0.73941419  0.65608045    -0.20800
C4552       C  0.88712919  0.73952322  0.67257503    -0.13400
C4553       C  0.91213679  0.74908797  0.66351877     0.03300
C4554       C  0.91404945  0.75911441  0.63751459    -0.25500
H4555       H  0.87268818  0.77467655  0.55765734     0.08400
H4556       H  0.91152762  0.77724307  0.58729097     0.12000
H4557       H  0.82531903  0.73929114  0.62003683     0.11900
H4558       H  0.84583816  0.73162713  0.66364859     0.11700
H4559       H  0.88492573  0.73176933  0.69254602     0.12200
H4560       H  0.93302436  0.76699679  0.63044648     0.14100
C4561       C  0.59787495  0.74117929  0.66587621    -0.05900
C4562       C  0.62415781  0.73679337  0.67546725    -0.05800
C4563       C  0.64619373  0.73695069  0.65827309    -0.24000
C4564       C  0.64252906  0.74178402  0.63111769     0.18200
C4565       C  0.61619298  0.74558836  0.62120613     0.15500
C4566       C  0.59408190  0.74495404  0.63851086    -0.19000
C4567       C  0.61238138  0.75068032  0.59419469    -0.20800
C4568       C  0.63435993  0.75241002  0.57718950    -0.13400
C4569       C  0.66081251  0.74891245  0.58666056     0.03300
C4570       C  0.66470360  0.74334030  0.61378784    -0.25500
H4571       H  0.62783539  0.73354692  0.69642704     0.08400
H4572       H  0.66613776  0.73382135  0.66631815     0.12000
H4573       H  0.57404326  0.74824240  0.63074535     0.11900
H4574       H  0.59238295  0.75368111  0.58622711     0.11700
H4575       H  0.63047911  0.75667544  0.55645198     0.12200
H4576       H  0.68484080  0.74033278  0.62141005     0.14100
C4577       C  0.65963236  0.74806062  0.91459078    -0.05900
C4578       C  0.63472626  0.75814319  0.92338967    -0.05800
C4579       C  0.61223129  0.75758275  0.90697439    -0.24000
C4580       C  0.61403986  0.74684686  0.88137574     0.18200
C4581       C  0.63892353  0.73663536  0.87219871     0.15500
C4582       C  0.66165947  0.73751695  0.88876035    -0.19000
C4583       C  0.64055606  0.72562956  0.84664896    -0.20800
C4584       C  0.61806762  0.72563305  0.83009012    -0.13400
C4585       C  0.59354860  0.73687757  0.83862143     0.03300
C4586       C  0.59146978  0.74670000  0.86464946    -0.25500
H4587       H  0.63250990  0.76652042  0.94315307     0.08400
H4588       H  0.59339607  0.76553705  0.91434708     0.12000
H4589       H  0.68064670  0.72953096  0.88177427     0.11900
H4590       H  0.65929613  0.71741539  0.83930865     0.11700
H4591       H  0.62009204  0.71744089  0.81022634     0.12200
H4592       H  0.57270610  0.75532869  0.87147155     0.14100
C4593       C  0.90941837  0.75184592  0.83507845    -0.05900
C4594       C  0.88459294  0.76285815  0.82718247    -0.05800
C4595       C  0.86209833  0.76162916  0.84375839    -0.24000
C4596       C  0.86367486  0.74893545  0.86850383     0.18200
C4597       C  0.88841471  0.73764399  0.87668424     0.15500
C4598       C  0.91119602  0.73944791  0.86010693    -0.19000
C4599       C  0.88986675  0.72458890  0.90126327    -0.20800
C4600       C  0.86738991  0.72350824  0.91790002    -0.13400
C4601       C  0.84287490  0.73545115  0.91042630     0.03300
C4602       C  0.84103227  0.74763526  0.88531098    -0.25500
H4603       H  0.88250854  0.77250229  0.80802918     0.08400
H4604       H  0.84338456  0.77044430  0.83709943     0.12000
H4605       H  0.93003743  0.73057593  0.86635880     0.11900
H4606       H  0.90850249  0.71552998  0.90781798     0.11700
H4607       H  0.86935958  0.71375020  0.93701138     0.12200
H4608       H  0.82236629  0.75704004  0.87931617     0.14100
C4609       C  0.90423694  0.91743406  0.50075403    -0.05900
C4610       C  0.87831408  0.92551362  0.49297308    -0.05800
C4611       C  0.85754403  0.90675851  0.49096299    -0.24000
C4612       C  0.86238214  0.87968184  0.49674315     0.18200
C4613       C  0.88831414  0.87148921  0.50470482     0.15500
C4614       C  0.91138204  0.88625587  0.00484947    -0.19000
C4615       C  0.89343570  0.84130685  0.01162685    -0.20800
C4616       C  0.87206239  0.82322654  0.01010713    -0.13400
C4617       C  0.84683846  0.83346807  0.50041446     0.03300
C4618       C  0.84178885  0.86064145  0.49471330    -0.25500
H4619       H  0.87418041  0.94623373  0.48801450     0.08400
H4620       H  0.83779008  0.91338230  0.48474413     0.12000
H4621       H  0.93078112  0.87963826  0.01211689     0.11900
H4622       H  0.91262697  0.83444338  0.01916122     0.11700
H4623       H  0.87523867  0.80279201  0.01665455     0.12200
H4624       H  0.82189498  0.86700517  0.48864455     0.14100
C4625       C  0.83824106  0.65424488  0.50072507    -0.05900
C4626       C  0.82909886  0.62692331  0.00838460    -0.05800
C4627       C  0.84772618  0.60602890  0.00865497    -0.24000
C4628       C  0.87463376  0.61087323  0.00216378     0.18200
C4629       C  0.88440947  0.63780358  0.49756563     0.15500
C4630       C  0.86600355  0.65920289  0.49830058    -0.19000
C4631       C  0.91204858  0.64255329  0.49506677    -0.20800
C4632       C  0.93016439  0.62109767  0.49445201    -0.13400
C4633       C  0.92103086  0.59443649  0.49644553     0.03300
C4634       C  0.89333599  0.58986546  0.00224546    -0.25500
H4635       H  0.80845829  0.62253700  0.01354695     0.08400
H4636       H  0.84106377  0.58605113  0.01391748     0.12000
H4637       H  0.87332295  0.67962645  0.49693882     0.11900
H4638       H  0.91967077  0.66285292  0.49362691     0.11700
H4639       H  0.95137888  0.62545098  0.49257345     0.12200
H4640       H  0.88678460  0.56984646  0.00752677     0.14100
C4641       C  0.66950413  0.84379902  0.49613916    -0.05900
C4642       C  0.67602014  0.86745341  0.00213078    -0.05800
C4643       C  0.65806774  0.88890538  0.00251231    -0.24000
C4644       C  0.63087086  0.88473071  0.99686132     0.18200
C4645       C  0.62307147  0.85920266  0.49902034     0.15500
C4646       C  0.64188582  0.83829206  0.49826182    -0.19000
C4647       C  0.59556725  0.85366473  0.50122858    -0.20800
C4648       C  0.57685596  0.87454931  0.50155528    -0.13400
C4649       C  0.58531198  0.90137588  0.49970149    -0.02300
C4650       C  0.61268964  0.90619111  0.99784670    -0.25500
H4651       H  0.69686346  0.87132713  0.00694739     0.08400
H4652       H  0.66544696  0.90874943  0.00745618     0.12000
H4653       H  0.63495128  0.81772945  0.49947053     0.11900
H4654       H  0.58850272  0.83315697  0.50252131     0.11700
H4655       H  0.55573632  0.86963790  0.50305931     0.12200
H4656       H  0.61989880  0.92607476  0.00293733     0.14100
C4657       C  0.65850725  0.66343628  0.49900722    -0.05900
C4658       C  0.63147477  0.67156734  0.99268701    -0.05800
C4659       C  0.61065315  0.65297735  0.99028775    -0.24000
C4660       C  0.61552135  0.62566999  0.99464042     0.18200
C4661       C  0.64110585  0.61812154  0.50650170     0.15500
C4662       C  0.66163326  0.63735325  0.50932358    -0.19000
C4663       C  0.64402223  0.59221702  0.51699779    -0.20800
C4664       C  0.62351183  0.57319321  0.51399657    -0.13400
C4665       C  0.59957732  0.57974520  0.50060563     0.03300
C4666       C  0.59452308  0.60705103  0.99312067    -0.25500
H4667       H  0.62709799  0.69253090  0.98914447     0.08400
H4668       H  0.59070850  0.65998544  0.98518437     0.12000
H4669       H  0.67997084  0.63204777  0.51967420     0.11900
H4670       H  0.66213534  0.58668877  0.52760235     0.11700
H4671       H  0.62618824  0.55347062  0.52257663     0.12200
H4672       H  0.57440680  0.61398730  0.98858320     0.14100
C4673       C  0.84967564  0.50240323  0.83254149    -0.05900
C4674       C  0.87594767  0.50670182  0.82307822    -0.05800
C4675       C  0.89759844  0.50771645  0.84060957    -0.24000
C4676       C  0.89335216  0.50441465  0.86787335     0.18200
C4677       C  0.86536703  0.99992814  0.87779258     0.15500
C4678       C  0.84371400  0.99949208  0.86011022    -0.19000
C4679       C  0.86085239  0.99777834  0.90507818    -0.20800
C4680       C  0.88240477  0.99806916  0.92265924    -0.13400
C4681       C  0.91046349  0.50189372  0.91299590     0.03300
C4682       C  0.91497331  0.50523351  0.88568874    -0.25500
H4683       H  0.87983138  0.50936332  0.80207465     0.08400
H4684       H  0.91761092  0.51105567  0.83285220     0.12000
H4685       H  0.82344571  0.99747290  0.86770225     0.11900
H4686       H  0.84066103  0.99575151  0.91283847     0.11700
H4687       H  0.87817816  0.99610112  0.94366825     0.12200
H4688       H  0.93517028  0.50844915  0.87832577     0.14100
C4689       C  0.58934875  0.48938184  0.90760779    -0.05900
C4690       C  0.58100637  0.48039679  0.88236175    -0.05800
C4691       C  0.59871907  0.48016260  0.86086639    -0.24000
C4692       C  0.62521285  0.48901809  0.86404400     0.18200
C4693       C  0.63222104  0.00035656  0.88801177     0.15500
C4694       C  0.61423675  0.99992304  0.90959711    -0.19000
C4695       C  0.65822001  0.01065373  0.89104100    -0.20800
C4696       C  0.67598056  0.01094262  0.86951820    -0.13400
C4697       C  0.66974015  0.49787722  0.84553798     0.03300
C4698       C  0.64305502  0.48915971  0.84231817    -0.25500
H4699       H  0.56061566  0.47354298  0.87915446     0.08400
H4700       H  0.59161507  0.47319167  0.84169409     0.12000
H4701       H  0.62042884  0.00790198  0.92871432     0.11900
H4702       H  0.66486885  0.01842503  0.91007932     0.11700
H4703       H  0.69595085  0.01898779  0.87256924     0.12200
H4704       H  0.63623638  0.48222582  0.82302110     0.14100
C4705       C  0.59784327  0.49357408  0.58421552    -0.05900
C4706       C  0.62437666  0.49005384  0.57504204    -0.05800
C4707       C  0.64606939  0.48895218  0.59277677    -0.24000
C4708       C  0.64191701  0.49135246  0.62025127     0.18200
C4709       C  0.61529668  0.99833023  0.62878228     0.15500
C4710       C  0.59348221  0.99817601  0.61085214    -0.19000
C4711       C  0.61093078  0.00062584  0.65619640    -0.20800
C4712       C  0.63254237  0.00044832  0.67397948    -0.13400
C4713       C  0.65953534  0.49337306  0.66589346     0.03300
C4714       C  0.66377144  0.49085053  0.63823690    -0.25500
H4715       H  0.62850294  0.48815273  0.55399519     0.08400
H4716       H  0.66615802  0.48631027  0.58493981     0.12000
H4717       H  0.57321455  0.00009402  0.61845226     0.11900
H4718       H  0.59071736  0.00240486  0.66395781     0.11700
H4719       H  0.62821055  0.00209440  0.69500463     0.12200
H4720       H  0.68402058  0.48868796  0.63065376     0.14100
C4721       C  0.84459968  0.49037630  0.66141895    -0.05900
C4722       C  0.86791612  0.97696131  0.66918158    -0.05800
C4723       C  0.89056283  0.97670580  0.65284015    -0.24000
C4724       C  0.89067711  0.99109402  0.62903573     0.18200
C4725       C  0.86758614  0.50510998  0.62113002     0.15500
C4726       C  0.84469491  0.50517909  0.63769610    -0.19000
C4727       C  0.86819777  0.52057174  0.59796801    -0.20800
C4728       C  0.89079818  0.52026512  0.58157086    -0.13400
C4729       C  0.91340395  0.50456807  0.58788929     0.03300
C4730       C  0.91352430  0.99090915  0.61247024    -0.25500
H4731       H  0.86870921  0.96592679  0.68768056     0.08400
H4732       H  0.90808975  0.96542122  0.65898030     0.12000
H4733       H  0.82743065  0.51738645  0.63262570     0.11900
H4734       H  0.85113420  0.53282787  0.59243008     0.11700
H4735       H  0.89052699  0.53227090  0.56365724     0.12200
H4736       H  0.93092052  0.97896661  0.61774441     0.14100
C4737       C  0.50530436  0.58192639  0.90583285    -0.05900
C4738       C  0.00612650  0.57185778  0.87951733    -0.05800
C4739       C  0.00524006  0.58908372  0.85775920    -0.24000
C4740       C  0.00331749  0.61679116  0.86165475     0.18200
C4741       C  0.50241385  0.62715200  0.88795665     0.15500
C4742       C  0.50340427  0.60972078  0.90982533    -0.19000
C4743       C  0.50028838  0.65480701  0.89188419    -0.20800
C4744       C  0.49928335  0.67204839  0.87015239    -0.13400
C4745       C  0.50035051  0.66211362  0.84385535     0.03300
C4746       C  0.00228767  0.63429239  0.83978039    -0.25500
H4747       H  0.00751864  0.55052261  0.87565530     0.08400
H4748       H  0.00597737  0.58069408  0.83788016     0.12000
H4749       H  0.50237919  0.61777853  0.92983962     0.11900
H4750       H  0.49945468  0.66315325  0.91178253     0.11700
H4751       H  0.49778830  0.69335155  0.87411356     0.12200
H4752       H  0.00312082  0.62624711  0.81975967     0.14100
C4753       C  0.51030150  0.83973148  0.83748444    -0.05900
C4754       C  0.52665902  0.86215420  0.83273352    -0.05800
C4755       C  0.52722910  0.88350286  0.85070108    -0.24000
C4756       C  0.51113023  0.88291219  0.87348642     0.18200
C4757       C  0.99484429  0.86028597  0.87860190     0.15500
C4758       C  0.99471028  0.83873292  0.86064602    -0.19000
C4759       C  0.97893405  0.85963317  0.90155373    -0.20800
C4760       C  0.97920886  0.88123005  0.91925928    -0.13400
C4761       C  0.49505717  0.90388741  0.91405357     0.03300
C4762       C  0.51095268  0.90467705  0.89112697    -0.25500
H4763       H  0.53898187  0.86316496  0.81503168     0.08400
H4764       H  0.53996607  0.90061668  0.84659828     0.12000
H4765       H  0.98203033  0.82146802  0.86436693     0.11900
H4766       H  0.96638865  0.84242844  0.90584636     0.11700
H4767       H  0.96692176  0.88030938  0.93699752     0.12200
H4768       H  0.52358410  0.92197017  0.88734453     0.14100
C4769       C  0.50719508  0.83939359  0.66276895    -0.05900
C4770       C  0.02179914  0.86266658  0.66937532    -0.05800
C4771       C  0.02142528  0.88517912  0.65301205    -0.24000
C4772       C  0.00652058  0.88504366  0.62946099     0.18200
C4773       C  0.49154710  0.86191687  0.62252554     0.15500
C4774       C  0.49206157  0.83910324  0.63912901    -0.19000
C4775       C  0.47668071  0.86198213  0.59887004    -0.20800
C4776       C  0.47745110  0.88426738  0.58200243    -0.13400
C4777       C  0.49272133  0.90723251  0.58855167     0.03300
C4778       C  0.00662661  0.90764908  0.61272041    -0.25500
H4779       H  0.03348271  0.86353045  0.68753015     0.08400
H4780       H  0.03287986  0.90272680  0.65879683     0.12000
H4781       H  0.48040090  0.82147327  0.63396761     0.11900
H4782       H  0.46496020  0.84459506  0.59309657     0.11700
H4783       H  0.46634316  0.88337227  0.56349583     0.12200
H4784       H  0.01839020  0.92514726  0.61805347     0.14100
C4785       C  0.50704386  0.65463776  0.66344274    -0.05900
C4786       C  0.50667919  0.62799885  0.67279109    -0.05800
C4787       C  0.50802216  0.60623145  0.65528500    -0.24000
C4788       C  0.50956547  0.61036875  0.62783609     0.18200
C4789       C  0.01046548  0.63686797  0.61794626     0.15500
C4790       C  0.00943354  0.65885675  0.63575240    -0.19000
C4791       C  0.01161321  0.64085720  0.59039480    -0.20800
C4792       C  0.01171327  0.61891869  0.57291037    -0.13400
C4793       C  0.51069225  0.59237692  0.58247032     0.03300
C4794       C  0.51001725  0.58836765  0.61014923    -0.25500
H4795       H  0.50522103  0.62380147  0.69383777     0.08400
H4796       H  0.50753315  0.58607793  0.66326808     0.12000
H4797       H  0.00990141  0.67912711  0.62804768     0.11900
H4798       H  0.01205266  0.66097105  0.58231005     0.11700
H4799       H  0.01217494  0.62289263  0.55177040     0.12200
H4800       H  0.50935745  0.56815468  0.61798438     0.14100
loop_ 
_geom_bond_atom_site_label_1 
_geom_bond_atom_site_label_2 
_geom_bond_distance 
_geom_bond_site_symmetry_2 
_ccdc_geom_bond_type 
O1           C12   1.298       .  A
O1          Eu37   2.494   1_545  S
O2           C13   1.289   1_655  A
O2          Eu36   2.440   1_545  S
O3           C14   1.292       .  A
O3           Eu9   2.457       .  S
O4           C15   1.292       .  A
O4        Eu2409   2.460       .  S
O5           C15   1.291       .  A
O5          Eu39   2.459       .  S
O6           C14   1.289       .  A
O6          Eu38   2.445   1_545  S
O7           C13   1.296       .  A
O7         Eu609   2.482       .  S
O8           C12   1.294       .  A
O8           Eu9   2.468   1_554  S
Eu9        O2404   2.459   1_455  S
Eu9         O607   2.483       .  S
Eu9          O11   2.353   1_556  S
Eu9        O2419   2.359   1_456  S
Eu9        O3010   2.347   1_455  S
Eu9         O617   2.353       .  S
O10       Eu3009   2.348       .  S
O10        Eu639   2.337       .  S
O10       Eu2436   2.352   1_545  S
O11         Eu37   2.372   1_545  S
O11         Eu38   2.354   1_544  S
C12         C593   1.499       .  S
C13         C537   1.488       .  S
C14         C465   1.481       .  S
C15         C433   1.484       .  S
H16          O17   0.964       .  S
O17         Eu36   2.364   1_445  S
O17        Eu609   2.342       .  S
O17        Eu638   2.349   1_545  S
H18          O19   0.965       .  S
O19         Eu39   2.355   1_554  S
O19       Eu2409   2.359   1_554  S
O19       Eu2437   2.374   1_545  S
O20          C43   1.293       .  A
O20       Eu1236   2.464   1_655  S
O21          C44   1.302   1_455  A
O21       Eu1237   2.524       .  S
O22          C45   1.301       .  A
O22        Eu638   2.513       .  S
O23          C46   1.289       .  A
O23        Eu639   2.448       .  S
O24          C47   1.284       .  A
O24         Eu39   2.407   1_554  S
O25          C48   1.290       .  A
O25         Eu38   2.446   1_554  S
O26          C49   1.290       .  A
O26         Eu40   2.454   1_456  S
O27          C50   1.289   1_554  A
O27       Eu2440   2.443       .  S
O28          C49   1.290       .  A
O28       Eu1238   2.448       .  S
O29          C50   1.296       .  A
O29       Eu1239   2.485       .  S
O30          C45   1.287       .  A
O30         Eu36   2.425   1_455  S
O31          C48   1.300       .  A
O31         Eu37   2.504       .  S
O32          C47   1.303       .  A
O32       Eu2437   2.526   1_545  S
O33          C46   1.290   1_565  A
O33       Eu2436   2.454       .  S
O34          C43   1.286       .  A
O34        Eu640   2.427       .  S
O35          C44   1.284       .  A
O35         Eu40   2.412       .  S
Eu36       O1220   2.468       .  S
Eu36       O2433   2.454       .  S
Eu36       O2410   2.352   1_565  S
Eu36       O3654   2.334       .  S
Eu36       O1242   2.351   1_655  S
Eu37       O1221   2.519       .  S
Eu37       O2432   2.526   1_465  S
Eu37       O2419   2.374   1_465  S
Eu37       O3641   2.363   1_455  S
Eu37       O1252   2.370       .  S
Eu38        O622   2.476       .  S
Eu38       O1228   2.451       .  S
Eu38        O617   2.345   1_565  S
Eu38       O1252   2.359   1_556  S
Eu38       O1842   2.342       .  S
Eu39        O623   2.425       .  S
Eu39       O1229   2.465   1_545  S
Eu39        O610   2.333       .  S
Eu39       O1241   2.356   1_546  S
Eu39       O1854   2.339   1_545  S
Eu40       O2427   2.443       .  S
Eu40        O634   2.436   1_554  S
Eu40         O52   2.352   1_655  S
Eu40       O2441   2.355       .  S
Eu40       O3054   2.343   1_554  S
Eu40        O642   2.337   1_654  S
O41       Eu3637   2.359       .  S
O41       Eu1239   2.353   1_554  S
O41       Eu2440   2.355       .  S
O42       Eu1236   2.351       .  S
O42       Eu1838   2.353       .  S
O42        Eu640   2.351   1_455  S
C43         C561   1.472       .  S
C44         C577   1.491       .  S
C45         C489   1.493       .  S
C46         C481   1.480       .  S
C47         C529   1.487       .  S
C48         C505   1.496       .  S
C49         C449   1.483       .  S
C50         C409   1.486       .  S
H51          O52   0.964       .  S
O52       Eu1237   2.373       .  S
O52       Eu1238   2.362   1_554  S
H53          O54   0.966       .  S
O54       Eu3636   2.339       .  S
O54       Eu1839   2.347       .  S
O54       Eu3040   2.351       .  S
O55          C66   1.297       .  A
O55         Eu91   2.483       .  S
O56          C67   1.291       .  A
O56         Eu90   2.445       .  S
O57          C68   1.300       .  A
O57         Eu63   2.515       .  S
O58          C69   1.295       .  A
O58       Eu2463   2.476       .  S
O59          C69   1.290       .  A
O59         Eu93   2.449       .  S
O60          C68   1.283       .  A
O60         Eu92   2.416       .  S
O61          C67   1.299       .  A
O61         Eu63   2.500   1_655  S
O62          C66   1.294       .  A
O62         Eu63   2.460       .  S
Eu63       O2458   2.476   1_455  S
Eu63         O65   2.366       .  S
Eu63         O71   2.338       .  S
Eu63       O2473   2.375   1_455  S
Eu63       O2464   2.353   1_455  S
O64         Eu93   2.345       .  S
O64       Eu2463   2.353       .  S
O64       Eu2490   2.344       .  S
O65         Eu91   2.378       .  S
O65         Eu92   2.341       .  S
C66         C585   1.493       .  S
C67         C545   1.493       .  S
C68         C321   1.483       .  S
C69         C281   1.485       .  S
H70          O71   0.967       .  S
O71         Eu92   2.346       .  S
O71         Eu90   2.361   1_455  S
H72          O73   0.967       .  S
O73         Eu93   2.351       .  S
O73       Eu2463   2.375       .  S
O73       Eu2491   2.374       .  S
O74          C97   1.291   1_655  A
O74         Eu90   2.450       .  S
O75          C98   1.299       .  A
O75         Eu91   2.503       .  S
O76          C99   1.282       .  A
O76         Eu92   2.401       .  S
O77         C100   1.285       .  A
O77         Eu93   2.421       .  S
O78         C101   1.284       .  A
O78         Eu93   2.412       .  S
O79         C102   1.288       .  A
O79         Eu92   2.437       .  S
O80         C103   1.292       .  A
O80         Eu94   2.463       .  S
O81         C104   1.288       .  A
O81       Eu2494   2.442       .  S
O82         C103   1.284       .  A
O82         Eu92   2.425       .  S
O83         C104   1.291       .  A
O83         Eu93   2.464       .  S
O84          C99   1.300       .  A
O84         Eu90   2.511   1_455  S
O85         C102   1.298       .  A
O85         Eu91   2.498       .  S
O86         C101   1.298       .  A
O86       Eu2491   2.503       .  S
O87         C100   1.301       .  A
O87       Eu2490   2.513       .  S
O88          C97   1.289       .  A
O88         Eu94   2.441       .  S
O89          C98   1.287       .  A
O89         Eu94   2.424       .  S
Eu90       O2487   2.513       .  S
Eu90         O96   2.361   1_655  S
Eu90       O2464   2.344       .  S
Eu90       O2508   2.359       .  S
Eu91       O2486   2.503   1_455  S
Eu91        O106   2.358       .  S
Eu91       O2473   2.374   1_455  S
Eu91       O2495   2.363   1_455  S
Eu92        O106   2.332       .  S
Eu92         O96   2.343       .  S
Eu93         O95   2.343       .  S
Eu93        O108   2.340       .  S
Eu94       O2481   2.442   1_455  S
Eu94        O106   2.345       .  S
Eu94         O96   2.340       .  S
Eu94       O2495   2.353   1_455  S
Eu94       O2508   2.354   1_455  S
O95       Eu2491   2.364       .  S
O95       Eu2494   2.353       .  S
C97         C553   1.472       .  S
C98         C569   1.485       .  S
C99         C385   1.489       .  S
C100        C393   1.493       .  S
C101        C353   1.491       .  S
C102        C361   1.491       .  S
C103        C337   1.478       .  S
C104        C297   1.477       .  S
H105        O106   0.965       .  S
H107        O108   0.966       .  S
O108      Eu2490   2.359       .  S
O108      Eu2494   2.354       .  S
O109        C120   1.285       .  A
O109       Eu145   2.420       .  S
O110        C121   1.291       .  A
O110       Eu144   2.453       .  S
O111        C122   1.295       .  A
O111       Eu117   2.472       .  S
O112        C123   1.293       .  A
O112      Eu1317   2.464   1_545  S
O113        C123   1.293       .  A
O113       Eu147   2.464       .  S
O114        C122   1.292       .  A
O114       Eu146   2.458       .  S
O115        C121   1.295       .  A
O115       Eu117   2.476       .  S
O116        C120   1.297       .  A
O116       Eu117   2.501       .  S
Eu117      O1312   2.465       .  S
Eu117       O119   2.358       .  S
Eu117       O125   2.368       .  S
Eu117      O1327   2.356       .  S
Eu117      O1318   2.360       .  S
O118       Eu147   2.352       .  S
O118      Eu1317   2.359   1_545  S
O118      Eu1344   2.350   1_545  S
O119       Eu145   2.341       .  S
O119       Eu146   2.365       .  S
C120       C1721   1.484       .  S
C121       C1713   1.488       .  S
C122        C233   1.489       .  S
C123        C225   1.486       .  S
H124        O125   0.965       .  S
O125       Eu146   2.350       .  S
O125       Eu144   2.346       .  S
H126        O127   0.965       .  S
O127       Eu147   2.368       .  S
O127      Eu1317   2.357   1_545  S
O127      Eu1345   2.355   1_545  S
O128        C151   1.294       .  A
O128       Eu144   2.476       .  S
O129        C152   1.285       .  A
O129       Eu145   2.420       .  S
O130        C153   1.290       .  A
O130       Eu146   2.454       .  S
O131        C154   1.299       .  A
O131       Eu147   2.506       .  S
O132        C155   1.296       .  A
O132       Eu147   2.488       .  S
O133        C156   1.286       .  A
O133       Eu146   2.422       .  S
O134        C157   1.293       .  A
O134       Eu148   2.466       .  S
O135        C158   1.293       .  A
O135      Eu1348   2.467       .  S
O136        C157   1.295       .  A
O136       Eu146   2.478       .  S
O137        C158   1.294       .  A
O137       Eu147   2.465       .  S
O138        C153   1.286       .  A
O138       Eu144   2.427       .  S
O139        C156   1.295       .  A
O139       Eu145   2.479       .  S
O140        C155   1.293       .  A
O140      Eu1345   2.464   1_545  S
O141        C154   1.284       .  A
O141      Eu1344   2.413   1_545  S
O142        C151   1.290       .  A
O142       Eu148   2.447       .  S
O143        C152   1.294       .  A
O143       Eu148   2.471       .  S
Eu144      O1341   2.413       .  S
Eu144       O150   2.338       .  S
Eu144      O1318   2.352       .  S
Eu144      O1362   2.345       .  S
Eu145      O1340   2.455       .  S
Eu145       O160   2.343       .  S
Eu145      O1327   2.357       .  S
Eu145      O1349   2.351       .  S
Eu146       O160   2.350       .  S
Eu146       O150   2.343       .  S
Eu147       O149   2.358       .  S
Eu147       O162   2.356       .  S
Eu148      O1335   2.471       .  S
Eu148       O160   2.347       .  S
Eu148       O150   2.358       .  S
Eu148      O1349   2.347       .  S
Eu148      O1362   2.353       .  S
O149      Eu1345   2.347   1_545  S
O149      Eu1348   2.345       .  S
C151       C1697   1.489       .  S
C152       C1673   1.478       .  S
C153        C329   1.476       .  S
C154        C313   1.478       .  S
C155        C289   1.493       .  S
C156        C305   1.477       .  S
C157        C249   1.490       .  S
C158        C265   1.490       .  S
H159        O160   0.965       .  S
H161        O162   0.965       .  S
O162      Eu1344   2.354   1_545  S
O162      Eu1348   2.359       .  S
O163        C174   1.293       .  A
O163       Eu199   2.470       .  S
O164        C175   1.288       .  A
O164       Eu198   2.433       .  S
O165        C176   1.290       .  A
O165       Eu771   2.441   1_554  S
O166        C177   1.286       .  A
O166       Eu171   2.426       .  S
O167        C177   1.301       .  A
O167       Eu201   2.513       .  S
O168        C176   1.298       .  A
O168       Eu200   2.501       .  S
O169        C175   1.292       .  A
O169       Eu171   2.463       .  S
O170        C174   1.294       .  A
O170       Eu171   2.471       .  S
Eu171       O765   2.441       .  S
Eu171       O181   2.351       .  S
Eu171       O172   2.350       .  S
Eu171       O773   2.353       .  S
Eu171       O779   2.349       .  S
O172       Eu201   2.355       .  S
O172       Eu198   2.353       .  S
O173       Eu200   2.366       .  S
O173       Eu771   2.355   1_554  S
O173       Eu799   2.344       .  S
C174       C1057   1.493       .  S
C175       C1041   1.479       .  S
C176        C369   1.493       .  S
C177        C377   1.493       .  S
H178        O179   0.966       .  S
O179       Eu200   2.364       .  S
O179       Eu771   2.355   1_554  S
O179       Eu798   2.352   1_554  S
H180        O181   0.965       .  S
O181       Eu199   2.359       .  S
O181       Eu201   2.355       .  S
O182        C205   1.289       .  A
O182       Eu198   2.444       .  S
O183        C206   1.293       .  A
O183       Eu199   2.463       .  S
O184        C207   1.291       .  A
O184       Eu200   2.450       .  S
O185        C208   1.293       .  A
O185       Eu201   2.461       .  S
O186        C209   1.295       .  A
O186       Eu201   2.475       .  S
O187        C210   1.289       .  A
O187       Eu200   2.442       .  S
O188        C211   1.281       .  A
O188       Eu802   2.396   1_554  S
O189        C212   1.290       .  A
O189       Eu202   2.442       .  S
O190        C211   1.302       .  A
O190       Eu200   2.517       .  S
O191        C212   1.297       .  A
O191       Eu201   2.491       .  S
O192        C207   1.296       .  A
O192       Eu798   2.480   1_554  S
O193        C210   1.297       .  A
O193       Eu799   2.489       .  S
O194        C209   1.296       .  A
O194       Eu199   2.481       .  S
O195        C208   1.295       .  A
O195       Eu198   2.478       .  S
O196        C205   1.289       .  A
O196       Eu202   2.450       .  S
O197        C206   1.290       .  A
O197       Eu202   2.447       .  S
Eu198       O792   2.470       .  S
Eu198       O216   2.350       .  S
Eu198       O779   2.363       .  S
Eu198       O804   2.353       .  S
Eu199       O793   2.495       .  S
Eu199       O203   2.350       .  S
Eu199       O773   2.356       .  S
Eu199       O814   2.356       .  S
Eu200       O214   2.356       .  S
Eu200       O204   2.350       .  S
Eu201       O203   2.357       .  S
Eu201       O216   2.375       .  S
Eu202       O788   2.454       .  S
Eu202       O203   2.348       .  S
Eu202       O216   2.353       .  S
Eu202       O814   2.347       .  S
Eu202       O804   2.342       .  S
O204       Eu798   2.344   1_554  S
O204       Eu802   2.347   1_554  S
C205       C1017   1.477       .  S
C206       C1025   1.485       .  S
C207        C241   1.490       .  S
C208        C257   1.489       .  S
C209        C273   1.497       .  S
C210        C217   1.487       .  S
C211        C345   1.487       .  S
C212        C401   1.492       .  S
H213        O214   0.965       .  S
O214       Eu799   2.353       .  S
O214       Eu802   2.358   1_554  S
H215        O216   0.965       .  S
C217        C218   1.410       .  A
C217        C222   1.406       .  A
C218        C219   1.398       .  A
C218        H227   1.083       .  S
C219        C220   1.402       .  A
C219        H228   1.084       .  S
C220        C226   1.406       .  A
C220        C221   1.413       .  A
C221        C223   1.401       .  A
C221        C222   1.406       .  A
C222        H229   1.084       .  S
C223        C224   1.398       .  A
C223        H230   1.084       .  S
C224        C225   1.407       .  A
C224        H231   1.083       .  S
C225        C226   1.409       .  A
C226        H232   1.084       .  S
C233        C234   1.409       .  A
C233        C238   1.408       .  A
C234        C235   1.400       .  A
C234        H243   1.083       .  S
C235        C236   1.403       .  A
C235        H244   1.084       .  S
C236        C242   1.407       .  A
C236        C237   1.412       .  A
C237        C239   1.402       .  A
C237        C238   1.405       .  A
C238        H245   1.084       .  S
C239        C240   1.398       .  A
C239        H246   1.084       .  S
C240        C241   1.407       .  A
C240        H247   1.083       .  S
C241        C242   1.412       .  A
C242        H248   1.084       .  S
C249        C250   1.408       .  A
C249        C254   1.409       .  A
C250        C251   1.400       .  A
C250        H259   1.083       .  S
C251        C252   1.403       .  A
C251        H260   1.084       .  S
C252        C258   1.408       .  A
C252        C253   1.413       .  A
C253        C255   1.402       .  A
C253        C254   1.408       .  A
C254        H261   1.084       .  S
C255        C256   1.399       .  A
C255        H262   1.084       .  S
C256        C257   1.408       .  A
C256        H263   1.083       .  S
C257        C258   1.409       .  A
C258        H264   1.084       .  S
C265        C266   1.407       .  A
C265        C270   1.411       .  A
C266        C267   1.400       .  A
C266        H275   1.083       .  S
C267        C268   1.403       .  A
C267        H276   1.083       .  S
C268        C274   1.409       .  A
C268        C269   1.412       .  A
C269        C271   1.404       .  A
C269        C270   1.409       .  A
C270        H277   1.084       .  S
C271        C272   1.402       .  A
C271        H278   1.084       .  S
C272        C273   1.409       .  A
C272        H279   1.083       .  S
C273        C274   1.412       .  A
C274        H280   1.084       .  S
C281        C282   1.408       .  A
C281        C286   1.406       .  A
C282        C283   1.402       .  A
C282        H291   1.083       .  S
C283        C284   1.404       .  A
C283        H292   1.084       .  S
C284        C290   1.411       .  A
C284        C285   1.414       .  A
C285        C287   1.401       .  A
C285        C286   1.406       .  A
C286        H293   1.084       .  S
C287        C288   1.398       .  A
C287        H294   1.084       .  S
C288        C289   1.408       .  A
C288        H295   1.083       .  S
C289        C290   1.411       .  A
C290        H296   1.084       .  S
C297        C298   1.406       .  A
C297        C302   1.405       .  A
C298        C299   1.396       .  A
C298        H307   1.083       .  S
C299        C300   1.400       .  A
C299        H308   1.084       .  S
C300        C306   1.402       .  A
C300        C301   1.415       .  A
C301        C303   1.400       .  A
C301        C302   1.402       .  A
C302        H309   1.084       .  S
C303        C304   1.395       .  A
C303        H310   1.084       .  S
C304        C305   1.409       .  A
C304        H311   1.083       .  S
C305        C306   1.403       .  A
C306        H312   1.084       .  S
C313        C314   1.408       .  A
C313        C318   1.403       .  A
C314        C315   1.396       .  A
C314        H323   1.084       .  S
C315        C316   1.400       .  A
C315        H324   1.084       .  S
C316        C322   1.409       .  A
C316        C317   1.418       .  A
C317        C319   1.400       .  A
C317        C318   1.410       .  A
C318        H325   1.084       .  S
C319        C320   1.398       .  A
C319        H326   1.084       .  S
C320        C321   1.410       .  A
C320        H327   1.084       .  S
C321        C322   1.403       .  A
C322        H328   1.084       .  S
C329        C330   1.408       .  A
C329        C334   1.405       .  A
C330        C331   1.391       .  A
C330        H339   1.083       .  S
C331        C332   1.397       .  A
C331        H340   1.084       .  S
C332        C338   1.399       .  A
C332        C333   1.415       .  A
C333        C335   1.399       .  A
C333        C334   1.402       .  A
C334        H341   1.084       .  S
C335        C336   1.395       .  A
C335        H342   1.084       .  S
C336        C337   1.410       .  A
C336        H343   1.083       .  S
C337        C338   1.402       .  A
C338        H344   1.084       .  S
C345        C346   1.415       .  A
C345        C350   1.399       .  A
C346        C347   1.397       .  A
C346        H355   1.083       .  S
C347        C348   1.398       .  A
C347        H356   1.084       .  S
C348        C354   1.413       .  A
C348        C349   1.418       .  A
C349        C351   1.392       .  A
C349        C350   1.406       .  A
C350        H357   1.084       .  S
C351        C352   1.389       .  A
C351        H358   1.084       .  S
C352        C353   1.414       .  A
C352        H359   1.082       .  S
C353        C354   1.407       .  A
C354        H360   1.084       .  S
C361        C362   1.411       .  A
C361        C366   1.405       .  A
C362        C363   1.401       .  A
C362        H371   1.083       .  S
C363        C364   1.402       .  A
C363        H372   1.084       .  S
C364        C370   1.412       .  A
C364        C365   1.415       .  A
C365        C367   1.398       .  A
C365        C366   1.406       .  A
C366        H373   1.084       .  S
C367        C368   1.395       .  A
C367        H374   1.084       .  S
C368        C369   1.411       .  A
C368        H375   1.083       .  S
C369        C370   1.410       .  A
C370        H376   1.084       .  S
C377        C378   1.414       .  A
C377        C382   1.403       .  A
C378        C379   1.399       .  A
C378        H387   1.083       .  S
C379        C380   1.399       .  A
C379        H388   1.084       .  S
C380        C386   1.412       .  A
C380        C381   1.417       .  A
C381        C383   1.395       .  A
C381        C382   1.407       .  A
C382        H389   1.084       .  S
C383        C384   1.391       .  A
C383        H390   1.084       .  S
C384        C385   1.414       .  A
C384        H391   1.083       .  S
C385        C386   1.405       .  A
C386        H392   1.084       .  S
C393        C394   1.414       .  A
C393        C398   1.403       .  A
C394        C395   1.402       .  A
C394        H403   1.083       .  S
C395        C396   1.402       .  A
C395        H404   1.084       .  S
C396        C402   1.414       .  A
C396        C397   1.416       .  A
C397        C399   1.396       .  A
C397        C398   1.406       .  A
C398        H405   1.084       .  S
C399        C400   1.392       .  A
C399        H406   1.084       .  S
C400        C401   1.410       .  A
C400        H407   1.083       .  S
C401        C402   1.410       .  A
C402        H408   1.084       .  S
C409        C410   1.406       .  A
C409       C1014   1.410   1_556  A
C410        C411   1.399       .  A
C410        H419   1.083       .  S
C411        C412   1.403       .  A
C411        H420   1.083       .  S
C412        C418   1.407       .  A
C412        C413   1.413   1_556  A
C413       C1015   1.403       .  A
C413       C1014   1.406       .  A
C414       C1009   1.404       .  A
C414       C1013   1.398       .  A
C414        H421   1.084       .  S
C415        C416   1.393       .  A
C415       C1013   1.399       .  A
C415        H422   1.084       .  S
C416       C1017   1.406       .  A
C416        H423   1.083       .  S
C417        C805   1.485       .  S
C417        C418   1.409       .  A
C417       C1016   1.406   1_556  A
C418        H424   1.084       .  S
C425        C806   1.478       .  S
C425        C430   1.405   1_554  A
C425       C1026   1.407       .  A
C426        C427   1.394       .  A
C426       C1025   1.407       .  A
C426        H435   1.083       .  S
C427        C428   1.399       .  A
C427        H436   1.084       .  S
C428        C434   1.402       .  A
C428       C1029   1.413       .  A
C429        C431   1.401       .  A
C429        C430   1.401       .  A
C429       C1028   1.413   1_556  A
C430        H437   1.084       .  S
C431        C432   1.396       .  A
C431        H438   1.084       .  S
C432        C433   1.407       .  A
C432        H439   1.083       .  S
C433       C1034   1.408   1_556  A
C434       C1033   1.406       .  A
C434        H440   1.084       .  S
C441        C775   1.485       .  S
C441        C446   1.410       .  A
C441       C1042   1.407       .  A
C442        C443   1.394       .  A
C442       C1041   1.408       .  A
C442        H451   1.083       .  S
C443        C444   1.400       .  A
C443        H452   1.084       .  S
C444        C450   1.399       .  A
C444       C1045   1.412       .  A
C445        C447   1.402       .  A
C445        C446   1.406       .  A
C445       C1044   1.413       .  A
C446        H453   1.084       .  S
C447        C448   1.398       .  A
C447        H454   1.084       .  S
C448        C449   1.408       .  A
C448        H455   1.083       .  S
C449       C1050   1.407       .  A
C450       C1049   1.407       .  A
C450        H456   1.084       .  S
C457        C774   1.483   1_556  S
C457        C462   1.408   1_556  A
C457       C1058   1.407       .  A
C458        C459   1.400       .  A
C458       C1057   1.408       .  A
C458        H467   1.083       .  S
C459        C460   1.403       .  A
C459        H468   1.084       .  S
C460        C466   1.408       .  A
C460       C1061   1.412       .  A
C461        C463   1.401   1_556  A
C461        C462   1.403   1_556  A
C461       C1060   1.413       .  A
C462        H469   1.084       .  S
C463        C464   1.396       .  A
C463        H470   1.084       .  S
C464        C465   1.408   1_554  A
C464        H471   1.083       .  S
C465       C1066   1.406       .  A
C466       C1065   1.410       .  A
C466        H472   1.084       .  S
C473       C1352   1.476       .  S
C473        C474   1.410       .  A
C473       C1678   1.401   1_565  A
C474        C475   1.393       .  A
C474        H483   1.083       .  S
C475        C476   1.399       .  A
C475        H484   1.084       .  S
C476        C482   1.402       .  A
C476       C1677   1.415   1_565  A
C477        C479   1.397       .  A
C477        C478   1.400       .  A
C477       C1676   1.414       .  A
C478       C1673   1.402       .  A
C478        H485   1.084       .  S
C479        C480   1.392       .  A
C479        H486   1.084       .  S
C480       C1681   1.408       .  A
C480        H487   1.083       .  S
C481        C482   1.406   1_545  A
C481       C1680   1.408       .  A
C482        H488   1.084       .  S
C489        C490   1.414       .  A
C489       C1694   1.404       .  A
C490        C491   1.401       .  A
C490        H499   1.083       .  S
C491        C492   1.402       .  A
C491        H500   1.084   1_565  S
C492        C498   1.412   1_565  A
C492       C1693   1.415       .  A
C493        C495   1.398       .  A
C493        C494   1.407       .  A
C493       C1692   1.415       .  A
C494       C1689   1.404       .  A
C494        H501   1.084       .  S
C495        C496   1.394       .  A
C495        H502   1.083       .  S
C496       C1697   1.409       .  A
C496        H503   1.083       .  S
C497       C1351   1.490       .  S
C497        C498   1.410       .  A
C497       C1696   1.409   1_545  A
C498        H504   1.084       .  S
C505        C506   1.412   1_565  A
C505       C1710   1.407       .  A
C506        C507   1.400       .  A
C506        H515   1.083       .  S
C507        C508   1.401   1_545  A
C507        H516   1.084       .  S
C508        C514   1.413       .  A
C508       C1709   1.415       .  A
C509        C511   1.400       .  A
C509        C510   1.410       .  A
C509       C1708   1.415       .  A
C510       C1705   1.407       .  A
C510        H517   1.084       .  S
C511        C512   1.397       .  A
C511        H518   1.083       .  S
C512       C1713   1.409       .  A
C512        H519   1.083       .  S
C513       C1321   1.493       .  S
C513        C514   1.410       .  A
C513       C1712   1.409       .  A
C514        H520   1.084   1_565  S
C521       C1320   1.485       .  S
C521        C526   1.406   1_565  A
C521       C1722   1.409       .  A
C522        C523   1.392       .  A
C522       C1721   1.410       .  A
C522        H531   1.083       .  S
C523        C524   1.396       .  A
C523        H532   1.084       .  S
C524        C530   1.406       .  A
C524       C1725   1.417       .  A
C525        C527   1.400       .  A
C525        C526   1.411       .  A
C525       C1724   1.417   1_545  A
C526        H533   1.084       .  S
C527        C528   1.399       .  A
C527        H534   1.084       .  S
C528        C529   1.413       .  A
C528        H535   1.083       .  S
C529       C1730   1.401   1_545  A
C530       C1729   1.400       .  A
C530        H536   1.084       .  S
C537        C542   1.407       .  A
C537       C2938   1.410   1_455  A
C538        C539   1.398       .  A
C538       C2937   1.410       .  A
C538        H547   1.083       .  S
C539        C540   1.401       .  A
C539        H548   1.084       .  S
C540        C546   1.408       .  A
C540       C2941   1.414       .  A
C541        C543   1.400   1_655  A
C541        C542   1.407   1_655  A
C541       C2940   1.414       .  A
C542        H549   1.084       .  S
C543        C544   1.398   1_455  A
C543        H550   1.084       .  S
C544        C545   1.411       .  A
C544        H551   1.083       .  S
C545       C2946   1.408       .  A
C546       C2945   1.408       .  A
C546        H552   1.084       .  S
C553        C554   1.406       .  A
C553       C2958   1.405   1_455  A
C554        C555   1.392       .  A
C554        H563   1.083       .  S
C555        C556   1.399       .  A
C555        H564   1.084       .  S
C556        C562   1.397       .  A
C556       C2957   1.414   1_455  A
C557        C559   1.401       .  A
C557        C558   1.399       .  A
C557       C2956   1.414       .  A
C558       C2953   1.405       .  A
C558        H565   1.084       .  S
C559        C560   1.395       .  A
C559        H566   1.084       .  S
C560       C2961   1.407       .  A
C560        H567   1.083       .  S
C561        C562   1.402   1_655  A
C561       C2960   1.407       .  A
C562        H568   1.084       .  S
C569        C574   1.404       .  A
C569       C2970   1.411       .  A
C570        C571   1.394       .  A
C570       C2969   1.411       .  A
C570        H579   1.083       .  S
C571        C572   1.397       .  A
C571        H580   1.083       .  S
C572        C578   1.411       .  A
C572       C2973   1.418       .  A
C573        C575   1.397   1_455  A
C573        C574   1.411       .  A
C573       C2972   1.418       .  A
C574        H581   1.084   1_455  S
C575        C576   1.396       .  A
C575        H582   1.084       .  S
C576        C577   1.414       .  A
C576        H583   1.083       .  S
C577       C2978   1.404   1_655  A
C578       C2977   1.403       .  A
C578        H584   1.084       .  S
C585        C586   1.410       .  A
C585       C2990   1.409       .  A
C586        C587   1.398       .  A
C586        H595   1.083   1_455  S
C587        C588   1.401       .  A
C587        H596   1.083   1_455  S
C588        C594   1.413       .  A
C588       C2989   1.414       .  A
C589        C591   1.400       .  A
C589        C590   1.411       .  A
C589       C2988   1.415       .  A
C590       C2985   1.409       .  A
C590        H597   1.084       .  S
C591        C592   1.399       .  A
C591        H598   1.084       .  S
C592       C2993   1.411       .  A
C592        H599   1.083       .  S
C593        C594   1.410       .  A
C593       C2992   1.411       .  A
C594        H600   1.084       .  S
O601        C612   1.300       .  A
O601       Eu637   2.503   1_545  S
O602        C613   1.283       .  A
O602       Eu636   2.404   1_545  S
O603        C614   1.292       .  A
O603       Eu609   2.464       .  S
O604        C615   1.290       .  A
O604      Eu3009   2.451       .  S
O605        C615   1.292       .  A
O605       Eu639   2.461       .  S
O606        C614   1.293       .  A
O606       Eu638   2.467   1_545  S
O607        C613   1.296       .  A
O608        C612   1.290       .  A
O608       Eu609   2.444       .  S
Eu609      O3004   2.450   1_455  S
Eu609      O3019   2.364   1_455  S
Eu609       O611   2.351       .  S
Eu609      O2410   2.348   1_455  S
O610      Eu2409   2.347       .  S
O610      Eu3036   2.349   1_545  S
O611       Eu637   2.370   1_545  S
O611       Eu638   2.347   1_545  S
C612       C1193   1.494       .  S
C613       C1137   1.477       .  S
C614       C1065   1.492       .  S
C615       C1033   1.485       .  S
H616        O617   0.965       .  S
O617       Eu636   2.361   1_545  S
H618        O619   0.964       .  S
O619      Eu3009   2.364       .  S
O619      Eu3037   2.373   1_545  S
O619       Eu639   2.346       .  S
O620        C643   1.294       .  A
O620      Eu1836   2.472   1_655  S
O621        C644   1.303       .  A
O621      Eu1837   2.537       .  S
O622        C645   1.294       .  A
O623        C646   1.286       .  A
O624        C647   1.287       .  A
O624       Eu639   2.429       .  S
O625        C648   1.295       .  A
O625       Eu638   2.475       .  S
O626        C649   1.291       .  A
O626       Eu640   2.459   1_455  S
O627        C650   1.293       .  A
O627      Eu3040   2.464       .  S
O628        C649   1.290       .  A
O628      Eu1838   2.443       .  S
O629        C650   1.288       .  A
O629      Eu1839   2.436       .  S
O630        C645   1.289       .  A
O630       Eu636   2.443       .  S
O631        C648   1.297       .  A
O631       Eu637   2.486       .  S
O632        C647   1.298       .  A
O632      Eu3037   2.496   1_545  S
O633        C646   1.293   1_565  A
O633      Eu3036   2.467       .  S
O634        C643   1.287       .  A
O635        C644   1.286   1_655  A
O635       Eu640   2.429       .  S
Eu636      O1820   2.460   1_455  S
Eu636      O3033   2.468   1_455  S
Eu636      O3010   2.349   1_465  S
Eu636      O4254   2.329   1_455  S
Eu636      O1842   2.338       .  S
Eu637      O1821   2.526       .  S
Eu637      O3032   2.496   1_465  S
Eu637      O3019   2.373   1_465  S
Eu637      O4241   2.353   1_455  S
Eu637      O1852   2.364       .  S
Eu638      O1828   2.436       .  S
Eu638      O1852   2.377       .  S
Eu638      O1242   2.356       .  S
Eu639      O1829   2.439   1_545  S
Eu639      O1841   2.356   1_545  S
Eu639      O1254   2.350   1_545  S
Eu640      O3027   2.464       .  S
Eu640      O3041   2.344       .  S
Eu640       O652   2.350   1_655  S
Eu640      O2454   2.351       .  S
O641      Eu4237   2.356       .  S
O641      Eu1839   2.362       .  S
O641      Eu3040   2.344       .  S
O642      Eu1836   2.343       .  S
O642      Eu1238   2.344       .  S
C643       C1161   1.477       .  S
C644       C1177   1.501   1_455  S
C645       C1089   1.483       .  S
C646       C1081   1.477       .  S
C647       C1129   1.483       .  S
C648       C1105   1.500       .  S
C649       C1049   1.481       .  S
C650       C1009   1.476       .  S
H651        O652   0.965       .  S
O652      Eu1837   2.363       .  S
O652      Eu1838   2.373       .  S
H653        O654   0.965       .  S
O654      Eu4236   2.330       .  S
O654      Eu1239   2.339       .  S
O654      Eu2440   2.343   1_556  S
O655        C666   1.296       .  A
O655       Eu691   2.480       .  S
O656        C667   1.286       .  A
O656       Eu690   2.418   1_655  S
O657        C668   1.292       .  A
O657       Eu663   2.473       .  S
O658        C669   1.291       .  A
O658      Eu3063   2.455       .  S
O659        C669   1.292       .  A
O659       Eu693   2.459       .  S
O660        C668   1.286       .  A
O660       Eu692   2.437       .  S
O661        C667   1.300       .  A
O661       Eu663   2.504   1_655  S
O662        C666   1.295       .  A
O662       Eu663   2.473       .  S
Eu663      O3058   2.455   1_455  S
Eu663      O3073   2.368   1_455  S
Eu663       O665   2.360       .  S
Eu663      O3064   2.356   1_455  S
Eu663       O671   2.344       .  S
O664      Eu3063   2.356       .  S
O664       Eu693   2.341       .  S
O664      Eu3090   2.362       .  S
O665       Eu691   2.371       .  S
O665       Eu692   2.337       .  S
C666       C1185   1.496       .  S
C667       C1145   1.485       .  S
C668        C921   1.467       .  S
C669        C881   1.485       .  S
H670        O671   0.967       .  S
O671       Eu692   2.343       .  S
O671       Eu690   2.361       .  S
H672        O673   0.967       .  S
O673      Eu3063   2.368       .  S
O673      Eu3091   2.371       .  S
O673       Eu693   2.355       .  S
O674        C697   1.294       .  A
O674       Eu690   2.477       .  S
O675        C698   1.300       .  A
O675       Eu691   2.507       .  S
O676        C699   1.285       .  A
O676       Eu692   2.419       .  S
O677        C700   1.289       .  A
O677       Eu693   2.441       .  S
O678        C701   1.287       .  A
O678       Eu693   2.425       .  S
O679        C702   1.288       .  A
O679       Eu692   2.443       .  S
O680        C703   1.290       .  A
O680       Eu694   2.450       .  S
O681        C704   1.290       .  A
O681      Eu3094   2.452       .  S
O682        C703   1.288       .  A
O682       Eu692   2.441       .  S
O683        C704   1.292       .  A
O683       Eu693   2.460       .  S
O684        C699   1.297       .  A
O684       Eu690   2.489       .  S
O685        C702   1.296       .  A
O685       Eu691   2.487       .  S
O686        C701   1.298       .  A
O686      Eu3091   2.496       .  S
O687        C700   1.297       .  A
O687      Eu3090   2.498       .  S
O688        C697   1.289       .  A
O688       Eu694   2.442       .  S
O689        C698   1.287       .  A
O689       Eu694   2.426       .  S
Eu690      O3087   2.498   1_455  S
Eu690      O3064   2.361   1_455  S
Eu690      O3108   2.347   1_455  S
Eu690       O696   2.354       .  S
Eu691      O3086   2.496   1_455  S
Eu691      O3073   2.371   1_455  S
Eu691      O3095   2.353   1_455  S
Eu691       O706   2.357       .  S
Eu692       O706   2.346       .  S
Eu692       O696   2.353       .  S
Eu693       O695   2.343       .  S
Eu693       O708   2.354       .  S
Eu694      O3081   2.452   1_455  S
Eu694      O3095   2.345   1_455  S
Eu694       O706   2.352       .  S
Eu694      O3108   2.354   1_455  S
Eu694       O696   2.341       .  S
O695      Eu3091   2.353       .  S
O695      Eu3094   2.344       .  S
C697       C1153   1.480       .  S
C698       C1169   1.489       .  S
C699        C985   1.473       .  S
C700        C993   1.493       .  S
C701        C953   1.488       .  S
C702        C961   1.482       .  S
C703        C937   1.477       .  S
C704        C897   1.485       .  S
H705        O706   0.965       .  S
H707        O708   0.966       .  S
O708      Eu3090   2.347       .  S
O708      Eu3094   2.353       .  S
O709        C720   1.285       .  A
O709       Eu745   2.423       .  S
O710        C721   1.295       .  A
O710       Eu744   2.473       .  S
O711        C722   1.293       .  A
O711       Eu717   2.459       .  S
O712        C723   1.294       .  A
O712      Eu1917   2.466   1_545  S
O713        C723   1.294       .  A
O713       Eu747   2.472       .  S
O714        C722   1.292       .  A
O714       Eu746   2.455       .  S
O715        C721   1.298       .  A
O715       Eu717   2.493       .  S
O716        C720   1.300       .  A
O716       Eu717   2.520       .  S
Eu717      O1912   2.479       .  S
Eu717      O1927   2.349       .  S
Eu717       O719   2.358       .  S
Eu717      O1918   2.357       .  S
Eu717       O725   2.374       .  S
O718      Eu1917   2.358   1_545  S
O718       Eu747   2.348       .  S
O718      Eu1944   2.353   1_545  S
O719       Eu745   2.338       .  S
O719       Eu746   2.364       .  S
C720       C2321   1.489       .  S
C721       C2313   1.502       .  S
C722        C833   1.482       .  S
C723        C825   1.494       .  S
H724        O725   0.965       .  S
O725       Eu746   2.355       .  S
O725       Eu744   2.347       .  S
H726        O727   0.965       .  S
O727      Eu1917   2.345   1_545  S
O727      Eu1945   2.349   1_545  S
O727       Eu747   2.360       .  S
O728        C751   1.297       .  A
O728       Eu744   2.498       .  S
O729        C752   1.282       .  A
O729       Eu745   2.404       .  S
O730        C753   1.292       .  A
O730       Eu746   2.465       .  S
O731        C754   1.294       .  A
O731       Eu747   2.481       .  S
O732        C755   1.295       .  A
O732       Eu747   2.477       .  S
O733        C756   1.289       .  A
O733       Eu746   2.438       .  S
O734        C757   1.289       .  A
O734       Eu748   2.445       .  S
O735        C758   1.291       .  A
O735      Eu1948   2.450       .  S
O736        C757   1.295       .  A
O736       Eu746   2.477       .  S
O737        C758   1.293       .  A
O737       Eu747   2.463       .  S
O738        C753   1.288       .  A
O738       Eu744   2.437       .  S
O739        C756   1.295       .  A
O739       Eu745   2.484       .  S
O740        C755   1.291       .  A
O740      Eu1945   2.456   1_545  S
O741        C754   1.285       .  A
O741      Eu1944   2.428   1_545  S
O742        C751   1.290       .  A
O742       Eu748   2.449       .  S
O743        C752   1.294       .  A
O743       Eu748   2.469       .  S
Eu744      O1941   2.416       .  S
Eu744      O1918   2.356       .  S
Eu744      O1962   2.349       .  S
Eu744       O750   2.340       .  S
Eu745      O1940   2.448       .  S
Eu745      O1927   2.356       .  S
Eu745      O1949   2.361       .  S
Eu745       O760   2.349       .  S
Eu746       O760   2.351       .  S
Eu746       O750   2.343       .  S
Eu747       O749   2.362       .  S
Eu747       O762   2.361       .  S
Eu748      O1935   2.451       .  S
Eu748      O1949   2.353       .  S
Eu748       O760   2.348       .  S
Eu748      O1962   2.351       .  S
Eu748       O750   2.357       .  S
O749      Eu1945   2.359   1_545  S
O749      Eu1948   2.352       .  S
C751       C2297   1.493       .  S
C752       C2273   1.471       .  S
C753        C929   1.480       .  S
C754        C913   1.465       .  S
C755        C889   1.489       .  S
C756        C905   1.488       .  S
C757        C849   1.485       .  S
C758        C865   1.483       .  S
H759        O760   0.965       .  S
H761        O762   0.966       .  S
O762      Eu1944   2.343   1_545  S
O762      Eu1948   2.358       .  S
O763        C774   1.291       .  A
O763       Eu799   2.456       .  S
O764        C775   1.292       .  A
O764       Eu798   2.462       .  S
O765        C776   1.289       .  A
O766        C777   1.289       .  A
O766       Eu771   2.446       .  S
O767        C777   1.292       .  A
O767       Eu801   2.465       .  S
O768        C776   1.296       .  A
O768       Eu800   2.492       .  S
O769        C775   1.290       .  A
O769       Eu771   2.451       .  S
O770        C774   1.291   1_556  A
O770       Eu771   2.457       .  S
Eu771       O781   2.349       .  S
Eu771       O772   2.344       .  S
O772       Eu801   2.360       .  S
O772       Eu798   2.348       .  S
O773       Eu800   2.363       .  S
C776        C969   1.481       .  S
C777        C977   1.476       .  S
H778        O779   0.966       .  S
O779       Eu800   2.368       .  S
H780        O781   0.965       .  S
O781       Eu799   2.358   1_556  S
O781       Eu801   2.365       .  S
O782        C805   1.291       .  A
O782       Eu798   2.452       .  S
O783        C806   1.288       .  A
O783       Eu799   2.435       .  S
O784        C807   1.291       .  A
O784       Eu800   2.448       .  S
O785        C808   1.292       .  A
O785       Eu801   2.456       .  S
O786        C809   1.292       .  A
O786       Eu801   2.454       .  S
O787        C810   1.291       .  A
O787       Eu800   2.449       .  S
O788        C811   1.290       .  A
O789        C812   1.288       .  A
O789       Eu802   2.441       .  S
O790        C811   1.298       .  A
O790       Eu800   2.502       .  S
O791        C812   1.297       .  A
O791       Eu801   2.500       .  S
O792        C807   1.294       .  A
O793        C810   1.298       .  A
O794        C809   1.292       .  A
O794       Eu799   2.459   1_556  S
O795        C808   1.293       .  A
O795       Eu798   2.463       .  S
O796        C805   1.294       .  A
O796       Eu802   2.471       .  S
O797        C806   1.292   1_556  A
O797       Eu802   2.458       .  S
Eu798       O816   2.372       .  S
Eu799       O803   2.357   1_554  S
Eu800       O814   2.356       .  S
Eu800       O804   2.358       .  S
Eu801       O803   2.342       .  S
Eu801       O816   2.355       .  S
Eu802       O803   2.330       .  S
Eu802       O816   2.340       .  S
C807        C841   1.483       .  S
C808        C857   1.484       .  S
C809        C873   1.483       .  S
C810        C817   1.494       .  S
C811        C945   1.497       .  S
C812       C1001   1.492       .  S
H813        O814   0.965       .  S
H815        O816   0.966       .  S
C817        C818   1.411       .  A
C817        C822   1.408       .  A
C818        C819   1.401       .  A
C818        H827   1.083       .  S
C819        C820   1.402       .  A
C819        H828   1.084       .  S
C820        C826   1.410       .  A
C820        C821   1.413       .  A
C821        C823   1.401       .  A
C821        C822   1.408       .  A
C822        H829   1.084       .  S
C823        C824   1.399       .  A
C823        H830   1.084       .  S
C824        C825   1.409       .  A
C824        H831   1.083       .  S
C825        C826   1.411       .  A
C826        H832   1.084       .  S
C833        C834   1.407       .  A
C833        C838   1.409       .  A
C834        C835   1.396       .  A
C834        H843   1.083       .  S
C835        C836   1.401       .  A
C835        H844   1.084       .  S
C836        C842   1.401       .  A
C836        C837   1.412       .  A
C837        C839   1.403       .  A
C837        C838   1.403       .  A
C838        H845   1.084       .  S
C839        C840   1.399       .  A
C839        H846   1.084       .  S
C840        C841   1.407       .  A
C840        H847   1.083       .  S
C841        C842   1.408       .  A
C842        H848   1.084       .  S
C849        C850   1.409       .  A
C849        C854   1.406       .  A
C850        C851   1.398       .  A
C850        H859   1.083       .  S
C851        C852   1.402       .  A
C851        H860   1.084       .  S
C852        C858   1.405       .  A
C852        C853   1.413       .  A
C853        C855   1.400       .  A
C853        C854   1.404       .  A
C854        H861   1.084       .  S
C855        C856   1.396       .  A
C855        H862   1.084       .  S
C856        C857   1.407       .  A
C856        H863   1.083       .  S
C857        C858   1.408       .  A
C858        H864   1.084       .  S
C865        C866   1.407       .  A
C865        C870   1.410       .  A
C866        C867   1.395       .  A
C866        H875   1.083       .  S
C867        C868   1.400       .  A
C867        H876   1.084       .  S
C868        C874   1.401       .  A
C868        C869   1.412       .  A
C869        C871   1.402       .  A
C869        C870   1.404       .  A
C870        H877   1.084       .  S
C871        C872   1.398       .  A
C871        H878   1.084       .  S
C872        C873   1.407       .  A
C872        H879   1.083       .  S
C873        C874   1.407       .  A
C874        H880   1.084       .  S
C881        C882   1.407       .  A
C881        C886   1.408       .  A
C882        C883   1.398       .  A
C882        H891   1.083       .  S
C883        C884   1.402       .  A
C883        H892   1.084       .  S
C884        C890   1.405       .  A
C884        C885   1.413       .  A
C885        C887   1.401       .  A
C885        C886   1.404       .  A
C886        H893   1.084       .  S
C887        C888   1.398       .  A
C887        H894   1.084       .  S
C888        C889   1.409       .  A
C888        H895   1.083       .  S
C889        C890   1.408       .  A
C890        H896   1.084       .  S
C897        C898   1.409       .  A
C897        C902   1.406       .  A
C898        C899   1.399       .  A
C898        H907   1.083       .  S
C899        C900   1.402       .  A
C899        H908   1.083       .  S
C900        C906   1.409       .  A
C900        C901   1.414       .  A
C901        C903   1.397       .  A
C901        C902   1.403       .  A
C902        H909   1.084       .  S
C903        C904   1.393       .  A
C903        H910   1.084       .  S
C904        C905   1.410       .  A
C904        H911   1.083       .  S
C905        C906   1.409       .  A
C906        H912   1.084       .  S
C913        C914   1.403       .  A
C913        C918   1.402       .  A
C914        C915   1.394       .  A
C914        H923   1.084       .  S
C915        C916   1.400       .  A
C915        H924   1.084       .  S
C916        C922   1.404       .  A
C916        C917   1.418       .  A
C917        C919   1.401       .  A
C917        C918   1.406       .  A
C918        H925   1.085       .  S
C919        C920   1.397       .  A
C919        H926   1.084       .  S
C920        C921   1.404       .  A
C920        H927   1.083       .  S
C921        C922   1.399       .  A
C922        H928   1.085       .  S
C929        C930   1.408       .  A
C929        C934   1.407       .  A
C930        C931   1.390       .  A
C930        H939   1.083       .  S
C931        C932   1.397       .  A
C931        H940   1.084       .  S
C932        C938   1.397       .  A
C932        C933   1.414       .  A
C933        C935   1.402       .  A
C933        C934   1.405       .  A
C934        H941   1.084       .  S
C935        C936   1.398       .  A
C935        H942   1.084       .  S
C936        C937   1.408       .  A
C936        H943   1.083       .  S
C937        C938   1.403       .  A
C938        H944   1.084       .  S
C945        C946   1.411       .  A
C945        C950   1.409       .  A
C946        C947   1.399       .  A
C946        H955   1.083       .  S
C947        C948   1.399       .  A
C947        H956   1.084       .  S
C948        C954   1.411       .  A
C948        C949   1.416       .  A
C949        C951   1.400       .  A
C949        C950   1.412       .  A
C950        H957   1.084       .  S
C951        C952   1.397       .  A
C951        H958   1.084       .  S
C952        C953   1.411       .  A
C952        H959   1.083       .  S
C953        C954   1.406       .  A
C954        H960   1.084       .  S
C961        C962   1.408       .  A
C961        C966   1.402       .  A
C962        C963   1.402       .  A
C962        H971   1.083       .  S
C963        C964   1.404       .  A
C963        H972   1.084       .  S
C964        C970   1.412       .  A
C964        C965   1.416       .  A
C965        C967   1.398       .  A
C965        C966   1.405       .  A
C966        H973   1.084       .  S
C967        C968   1.394       .  A
C967        H974   1.084       .  S
C968        C969   1.406       .  A
C968        H975   1.083       .  S
C969        C970   1.408       .  A
C970        H976   1.084       .  S
C977        C978   1.406       .  A
C977        C982   1.404       .  A
C978        C979   1.394       .  A
C978        H987   1.083       .  S
C979        C980   1.398       .  A
C979        H988   1.084       .  S
C980        C986   1.403       .  A
C980        C981   1.417       .  A
C981        C983   1.400       .  A
C981        C982   1.405       .  A
C982        H989   1.084       .  S
C983        C984   1.395       .  A
C983        H990   1.084       .  S
C984        C985   1.408       .  A
C984        H991   1.083       .  S
C985        C986   1.399       .  A
C986        H992   1.084       .  S
C993        C994   1.410       .  A
C993        C998   1.409       .  A
C994        C995   1.397       .  A
C994       H1003   1.083       .  S
C995        C996   1.399       .  A
C995       H1004   1.084       .  S
C996       C1002   1.411       .  A
C996        C997   1.416       .  A
C997        C999   1.402       .  A
C997        C998   1.414       .  A
C998       H1005   1.084       .  S
C999       C1000   1.400       .  A
C999       H1006   1.084       .  S
C1000      C1001   1.411       .  A
C1000      H1007   1.083       .  S
C1001      C1002   1.406       .  A
C1002      H1008   1.084       .  S
C1009      C1010   1.408       .  A
C1010      C1011   1.396       .  A
C1010      H1019   1.083       .  S
C1011      C1012   1.401       .  A
C1011      H1020   1.084       .  S
C1012      C1018   1.401       .  A
C1012      C1013   1.413       .  A
C1014      H1021   1.084       .  S
C1015      C1016   1.398       .  A
C1015      H1022   1.084       .  S
C1016      H1023   1.083       .  S
C1017      C1018   1.407       .  A
C1018      H1024   1.084       .  S
C1025      C1030   1.410       .  A
C1026      C1027   1.396       .  A
C1026      H1035   1.083       .  S
C1027      C1028   1.402       .  A
C1027      H1036   1.084       .  S
C1028      C1034   1.403       .  A
C1029      C1031   1.403       .  A
C1029      C1030   1.407       .  A
C1030      H1037   1.084       .  S
C1031      C1032   1.399       .  A
C1031      H1038   1.084       .  S
C1032      C1033   1.409       .  A
C1032      H1039   1.083       .  S
C1034      H1040   1.084       .  S
C1041      C1046   1.407       .  A
C1042      C1043   1.395       .  A
C1042      H1051   1.083   1_556  S
C1043      C1044   1.400       .  A
C1043      H1052   1.084       .  S
C1044      C1050   1.403       .  A
C1045      C1047   1.402       .  A
C1045      C1046   1.401       .  A
C1046      H1053   1.084       .  S
C1047      C1048   1.397       .  A
C1047      H1054   1.084       .  S
C1048      C1049   1.407       .  A
C1048      H1055   1.083       .  S
C1050      H1056   1.084       .  S
C1057      C1062   1.411       .  A
C1058      C1059   1.396       .  A
C1058      H1067   1.083       .  S
C1059      C1060   1.401       .  A
C1059      H1068   1.084       .  S
C1060      C1066   1.403       .  A
C1061      C1063   1.404       .  A
C1061      C1062   1.409       .  A
C1062      H1069   1.084       .  S
C1063      C1064   1.401       .  A
C1063      H1070   1.084       .  S
C1064      C1065   1.408       .  A
C1064      H1071   1.083       .  S
C1066      H1072   1.084       .  S
C1073      C1952   1.472       .  S
C1073      C1074   1.410       .  A
C1073      C2278   1.400   1_545  A
C1074      C1075   1.393       .  A
C1074      H1083   1.083       .  S
C1075      C1076   1.399       .  A
C1075      H1084   1.084       .  S
C1076      C1082   1.401       .  A
C1076      C2277   1.415   1_545  A
C1077      C2276   1.416       .  A
C1077      C1079   1.395       .  A
C1077      C1078   1.396       .  A
C1078      C2273   1.399       .  A
C1078      H1085   1.084       .  S
C1079      C1080   1.389       .  A
C1079      H1086   1.084       .  S
C1080      C2281   1.409       .  A
C1080      H1087   1.083       .  S
C1081      C2280   1.409   1_545  A
C1081      C1082   1.404       .  A
C1082      H1088   1.084       .  S
C1089      C1090   1.407       .  A
C1089      C2294   1.407       .  A
C1090      C1091   1.397       .  A
C1090      H1099   1.083       .  S
C1091      C1092   1.401       .  A
C1091      H1100   1.084       .  S
C1092      C1098   1.408       .  A
C1092      C2293   1.415   1_565  A
C1093      C2292   1.415       .  A
C1093      C1095   1.400       .  A
C1093      C1094   1.409       .  A
C1094      C2289   1.406       .  A
C1094      H1101   1.084       .  S
C1095      C1096   1.399       .  A
C1095      H1102   1.084       .  S
C1096      C2297   1.411       .  A
C1096      H1103   1.083       .  S
C1097      C1951   1.490       .  S
C1097      C2296   1.410       .  A
C1097      C1098   1.407   1_545  A
C1098      H1104   1.084       .  S
C1105      C1106   1.411       .  A
C1105      C2310   1.411       .  A
C1106      C1107   1.402       .  A
C1106      H1115   1.083       .  S
C1107      C1108   1.403       .  A
C1107      H1116   1.084       .  S
C1108      C1114   1.414       .  A
C1108      C2309   1.414       .  A
C1109      C2308   1.414       .  A
C1109      C1111   1.402       .  A
C1109      C1110   1.414       .  A
C1110      C2305   1.411       .  A
C1110      H1117   1.084       .  S
C1111      C1112   1.401       .  A
C1111      H1118   1.084       .  S
C1112      C2313   1.411       .  A
C1112      H1119   1.083       .  S
C1113      C1921   1.499       .  S
C1113      C2312   1.410   1_565  A
C1113      C1114   1.412       .  A
C1114      H1120   1.084       .  S
C1121      C1920   1.489       .  S
C1121      C2322   1.410       .  A
C1121      C1126   1.406   1_565  A
C1122      C2321   1.410       .  A
C1122      C1123   1.397       .  A
C1122      H1131   1.083       .  S
C1123      C1124   1.399       .  A
C1123      H1132   1.084       .  S
C1124      C1130   1.411       .  A
C1124      C2325   1.418       .  A
C1125      C2324   1.418   1_545  A
C1125      C1127   1.400       .  A
C1125      C1126   1.413       .  A
C1126      H1133   1.084       .  S
C1127      C1128   1.397       .  A
C1127      H1134   1.083       .  S
C1128      C1129   1.409       .  A
C1128      H1135   1.084       .  S
C1129      C2330   1.404   1_545  A
C1130      C2329   1.404       .  A
C1130      H1136   1.084       .  S
C1137      C3538   1.411       .  A
C1137      C1142   1.401       .  A
C1138      C3537   1.411       .  A
C1138      C1139   1.392       .  A
C1138      H1147   1.083       .  S
C1139      C1140   1.397       .  A
C1139      H1148   1.084       .  S
C1140      C1146   1.405       .  A
C1140      C3541   1.416       .  A
C1141      C3540   1.416       .  A
C1141      C1143   1.395       .  A
C1141      C1142   1.403   1_655  A
C1142      H1149   1.084   1_455  S
C1143      C1144   1.393       .  A
C1143      H1150   1.084       .  S
C1144      C1145   1.412       .  A
C1144      H1151   1.083       .  S
C1145      C3546   1.404       .  A
C1146      C3545   1.404       .  A
C1146      H1152   1.084       .  S
C1153      C1154   1.407       .  A
C1153      C3558   1.406   1_455  A
C1154      C1155   1.396       .  A
C1154      H1163   1.083       .  S
C1155      C1156   1.400       .  A
C1155      H1164   1.084       .  S
C1156      C1162   1.404       .  A
C1156      C3557   1.415   1_455  A
C1157      C3556   1.415       .  A
C1157      C1159   1.401       .  A
C1157      C1158   1.406       .  A
C1158      C3553   1.406       .  A
C1158      H1165   1.084       .  S
C1159      C1160   1.397       .  A
C1159      H1166   1.084       .  S
C1160      C3561   1.407       .  A
C1160      H1167   1.083       .  S
C1161      C3560   1.407       .  A
C1161      C1162   1.403   1_655  A
C1162      H1168   1.084       .  S
C1169      C3570   1.411       .  A
C1169      C1174   1.405       .  A
C1170      C3569   1.411       .  A
C1170      C1171   1.398       .  A
C1170      H1179   1.083       .  S
C1171      C1172   1.400       .  A
C1171      H1180   1.083       .  S
C1172      C1178   1.416       .  A
C1172      C3573   1.417       .  A
C1173      C3572   1.417       .  A
C1173      C1175   1.397   1_455  A
C1173      C1174   1.412       .  A
C1174      H1181   1.084   1_455  S
C1175      C1176   1.397       .  A
C1175      H1182   1.084       .  S
C1176      C1177   1.414       .  A
C1176      H1183   1.083       .  S
C1177      C3578   1.408   1_655  A
C1178      C3577   1.408       .  A
C1178      H1184   1.084       .  S
C1185      C1186   1.409       .  A
C1185      C3590   1.412       .  A
C1186      C1187   1.397       .  A
C1186      H1195   1.083       .  S
C1187      C1188   1.399       .  A
C1187      H1196   1.084       .  S
C1188      C1194   1.409       .  A
C1188      C3589   1.414       .  A
C1189      C3588   1.414       .  A
C1189      C1191   1.402       .  A
C1189      C1190   1.413       .  A
C1190      C3585   1.412       .  A
C1190      H1197   1.084       .  S
C1191      C1192   1.401       .  A
C1191      H1198   1.084       .  S
C1192      C3593   1.412       .  A
C1192      H1199   1.083       .  S
C1193      C3592   1.412       .  A
C1193      C1194   1.406       .  A
C1194      H1200   1.084       .  S
O1201      C1212   1.299       .  A
O1201     Eu1237   2.498       .  S
O1202      C1213   1.289       .  A
O1202     Eu1236   2.443       .  S
O1203      C1214   1.291       .  A
O1203     Eu1209   2.453       .  S
O1204      C1215   1.290       .  A
O1204     Eu3609   2.453       .  S
O1205      C1215   1.293       .  A
O1205     Eu1239   2.468       .  S
O1206      C1214   1.289       .  A
O1206     Eu1238   2.445       .  S
O1207      C1213   1.297       .  A
O1207     Eu1809   2.491       .  S
O1208      C1212   1.292       .  A
O1208     Eu1209   2.459   1_554  S
Eu1209     O3604   2.452   1_455  S
Eu1209     O1807   2.486       .  S
Eu1209     O3619   2.365   1_456  S
Eu1209     O1211   2.350   1_556  S
Eu1209     O4210   2.347   1_455  S
Eu1209     O1817   2.350       .  S
O1210     Eu4209   2.348       .  S
O1210     Eu1839   2.334       .  S
O1210     Eu3636   2.349       .  S
O1211     Eu1237   2.371       .  S
O1211     Eu1238   2.352   1_554  S
C1212      C1793   1.496       .  S
C1213      C1737   1.492       .  S
C1214      C1665   1.479       .  S
C1215      C1633   1.484       .  S
H1216      O1217   0.964       .  S
O1217     Eu1809   2.342       .  S
O1217     Eu1838   2.352       .  S
O1217     Eu1236   2.366       .  S
H1218      O1219   0.965       .  S
O1219     Eu3609   2.365   1_554  S
O1219     Eu3637   2.373       .  S
O1219     Eu1239   2.357   1_554  S
O1220      C1243   1.293       .  A
O1221      C1244   1.302       .  A
O1222      C1245   1.301       .  A
O1222     Eu1838   2.510       .  S
O1223      C1246   1.291       .  A
O1223     Eu1839   2.456       .  S
O1224      C1247   1.282       .  A
O1224     Eu1239   2.398   1_554  S
O1225      C1248   1.291       .  A
O1225     Eu1238   2.450   1_554  S
O1226      C1249   1.290       .  A
O1226     Eu1240   2.450   1_455  S
O1227      C1250   1.288   1_554  A
O1227     Eu3640   2.440   1_554  S
O1228      C1249   1.290       .  A
O1229      C1250   1.292       .  A
O1230      C1245   1.286       .  A
O1230     Eu1236   2.424       .  S
O1231      C1248   1.298       .  A
O1231     Eu1237   2.495       .  S
O1232      C1247   1.304       .  A
O1232     Eu3637   2.527       .  S
O1233      C1246   1.290       .  A
O1233     Eu3636   2.457       .  S
O1234      C1243   1.286       .  A
O1234     Eu1840   2.426       .  S
O1235      C1244   1.283   1_655  A
O1235     Eu1240   2.408   1_554  S
Eu1236     O3633   2.456   1_455  S
Eu1236     O3610   2.349   1_455  S
Eu1236     O2454   2.339   1_455  S
Eu1237     O3632   2.527   1_455  S
Eu1237     O3619   2.373   1_455  S
Eu1237     O2441   2.359   1_455  S
Eu1238     O1822   2.479       .  S
Eu1238     O1817   2.347       .  S
Eu1239     O1823   2.418       .  S
Eu1239     O1810   2.334       .  S
Eu1240     O3627   2.440   1_556  S
Eu1240     O1834   2.428       .  S
Eu1240     O3641   2.355   1_556  S
Eu1240     O1252   2.349   1_656  S
Eu1240     O4254   2.341       .  S
Eu1240     O1842   2.336   1_655  S
O1241     Eu2437   2.363       .  S
O1241     Eu3640   2.355   1_554  S
O1242     Eu1840   2.350   1_455  S
C1243      C1761   1.474       .  S
C1244      C1777   1.489       .  S
C1245      C1689   1.491       .  S
C1246      C1681   1.484       .  S
C1247      C1729   1.485       .  S
C1248      C1705   1.492       .  S
C1249      C1649   1.481       .  S
C1250      C1609   1.478       .  S
H1251      O1252   0.964       .  S
H1253      O1254   0.966       .  S
O1254     Eu2436   2.334       .  S
O1254     Eu4240   2.350       .  S
O1255      C1266   1.298       .  A
O1255     Eu1291   2.491       .  S
O1256      C1267   1.291       .  A
O1256     Eu1290   2.446       .  S
O1257      C1268   1.298       .  A
O1257     Eu1263   2.505       .  S
O1258      C1269   1.295       .  A
O1258     Eu3663   2.474       .  S
O1259      C1269   1.289       .  A
O1259     Eu1293   2.439       .  S
O1260      C1268   1.286       .  A
O1260     Eu1292   2.429       .  S
O1261      C1267   1.298       .  A
O1261     Eu1263   2.496   1_655  S
O1262      C1266   1.292       .  A
O1262     Eu1263   2.449       .  S
Eu1263     O3658   2.474   1_455  S
Eu1263     O3673   2.377   1_455  S
Eu1263     O1265   2.366       .  S
Eu1263     O3664   2.352   1_455  S
Eu1263     O1271   2.336       .  S
O1264     Eu3663   2.352       .  S
O1264     Eu1293   2.347       .  S
O1264     Eu3690   2.349       .  S
O1265     Eu1291   2.380       .  S
O1265     Eu1292   2.346       .  S
C1266      C1785   1.492       .  S
C1267      C1745   1.493       .  S
C1268      C1521   1.482       .  S
C1269      C1481   1.482       .  S
H1270      O1271   0.967       .  S
O1271     Eu1292   2.338       .  S
O1271     Eu1290   2.357   1_455  S
H1272      O1273   0.967       .  S
O1273     Eu3663   2.379       .  S
O1273     Eu3691   2.375       .  S
O1273     Eu1293   2.356       .  S
O1274      C1297   1.292   1_655  A
O1274     Eu1290   2.456       .  S
O1275      C1298   1.299       .  A
O1275     Eu1291   2.504       .  S
O1276      C1299   1.288       .  A
O1276     Eu1292   2.435       .  S
O1277      C1300   1.287       .  A
O1277     Eu1293   2.432       .  S
O1278      C1301   1.285       .  A
O1278     Eu1293   2.422       .  S
O1279      C1302   1.289       .  A
O1279     Eu1292   2.445       .  S
O1280      C1303   1.292       .  A
O1280     Eu1294   2.461       .  S
O1281      C1304   1.288       .  A
O1281     Eu3694   2.442       .  S
O1282      C1303   1.285       .  A
O1282     Eu1292   2.421       .  S
O1283      C1304   1.291       .  A
O1283     Eu1293   2.461       .  S
O1284      C1299   1.297       .  A
O1284     Eu1290   2.496   1_455  S
O1285      C1302   1.298       .  A
O1285     Eu1291   2.494       .  S
O1286      C1301   1.298       .  A
O1286     Eu3691   2.500       .  S
O1287      C1300   1.298       .  A
O1287     Eu3690   2.496       .  S
O1288      C1297   1.287       .  A
O1288     Eu1294   2.430       .  S
O1289      C1298   1.286       .  A
O1289     Eu1294   2.420       .  S
Eu1290     O3687   2.496       .  S
Eu1290     O3664   2.349       .  S
Eu1290     O3708   2.356       .  S
Eu1290     O1296   2.357   1_655  S
Eu1291     O3686   2.502   1_455  S
Eu1291     O3673   2.374   1_455  S
Eu1291     O3695   2.360   1_455  S
Eu1291     O1306   2.360       .  S
Eu1292     O1306   2.342       .  S
Eu1292     O1296   2.347       .  S
Eu1293     O1295   2.339       .  S
Eu1293     O1308   2.341       .  S
Eu1294     O3681   2.442   1_455  S
Eu1294     O3695   2.350   1_455  S
Eu1294     O1306   2.343       .  S
Eu1294     O3708   2.351   1_455  S
Eu1294     O1296   2.341       .  S
O1295     Eu3691   2.359       .  S
O1295     Eu3694   2.349       .  S
C1297      C1753   1.472       .  S
C1298      C1769   1.486       .  S
C1299      C1585   1.486       .  S
C1300      C1593   1.491       .  S
C1301      C1553   1.489       .  S
C1302      C1561   1.491       .  S
C1303      C1537   1.475       .  S
C1304      C1497   1.478       .  S
H1305      O1306   0.965       .  S
H1307      O1308   0.966       .  S
O1308     Eu3690   2.356       .  S
O1308     Eu3694   2.351       .  S
O1309      C1320   1.285       .  A
O1309     Eu1345   2.418       .  S
O1310      C1321   1.293       .  A
O1310     Eu1344   2.465       .  S
O1311      C1322   1.293       .  A
O1311     Eu1317   2.466       .  S
O1312      C1323   1.293       .  A
O1313      C1323   1.293       .  A
O1313     Eu1347   2.464       .  S
O1314      C1322   1.293       .  A
O1314     Eu1346   2.461       .  S
O1315      C1321   1.294       .  A
O1315     Eu1317   2.474       .  S
O1316      C1320   1.298       .  A
O1316     Eu1317   2.506       .  S
Eu1317     O1319   2.354       .  S
Eu1317     O1325   2.375       .  S
O1318     Eu1347   2.351       .  S
O1319     Eu1345   2.342       .  S
O1319     Eu1346   2.366       .  S
C1322      C1433   1.487       .  S
C1323      C1425   1.486       .  S
H1324      O1325   0.965       .  S
O1325     Eu1346   2.349       .  S
O1325     Eu1344   2.348       .  S
H1326      O1327   0.965       .  S
O1327     Eu1347   2.366       .  S
O1328      C1351   1.295       .  A
O1328     Eu1344   2.481   1_545  S
O1329      C1352   1.284       .  A
O1329     Eu1345   2.413       .  S
O1330      C1353   1.291       .  A
O1330     Eu1346   2.457       .  S
O1331      C1354   1.297       .  A
O1331     Eu1347   2.501       .  S
O1332      C1355   1.295       .  A
O1332     Eu1347   2.480       .  S
O1333      C1356   1.285       .  A
O1333     Eu1346   2.416       .  S
O1334      C1357   1.293       .  A
O1334     Eu1348   2.467   1_565  S
O1335      C1358   1.294       .  A
O1336      C1357   1.294       .  A
O1336     Eu1346   2.478       .  S
O1337      C1358   1.293       .  A
O1337     Eu1347   2.461       .  S
O1338      C1353   1.287       .  A
O1338     Eu1344   2.433       .  S
O1339      C1356   1.295       .  A
O1339     Eu1345   2.480       .  S
O1340      C1355   1.292       .  A
O1341      C1354   1.284       .  A
O1342      C1351   1.290       .  A
O1342     Eu1348   2.443       .  S
O1343      C1352   1.294   1_545  A
O1343     Eu1348   2.470       .  S
Eu1344     O1350   2.339       .  S
Eu1345     O1360   2.346       .  S
Eu1346     O1360   2.354       .  S
Eu1346     O1350   2.338       .  S
Eu1347     O1349   2.360       .  S
Eu1347     O1362   2.355       .  S
Eu1348     O1360   2.348   1_545  S
Eu1348     O1350   2.355   1_545  S
C1353      C1529   1.477       .  S
C1354      C1513   1.473       .  S
C1355      C1489   1.488       .  S
C1356      C1505   1.477       .  S
C1357      C1449   1.486       .  S
C1358      C1465   1.490       .  S
H1359      O1360   0.965       .  S
H1361      O1362   0.964       .  S
O1363      C1374   1.292       .  A
O1363     Eu1399   2.461       .  S
O1364      C1375   1.288       .  A
O1364     Eu1398   2.436       .  S
O1365      C1376   1.289       .  A
O1365     Eu1971   2.441       .  S
O1366      C1377   1.284       .  A
O1366     Eu1371   2.417       .  S
O1367      C1377   1.301       .  A
O1367     Eu1401   2.519       .  S
O1368      C1376   1.298       .  A
O1368     Eu1400   2.503       .  S
O1369      C1375   1.294       .  A
O1369     Eu1371   2.474       .  S
O1370      C1374   1.294       .  A
O1370     Eu1371   2.474       .  S
Eu1371     O1965   2.422       .  S
Eu1371     O1381   2.344       .  S
Eu1371     O1973   2.351       .  S
Eu1371     O1372   2.349       .  S
Eu1371     O1979   2.348       .  S
O1372     Eu1401   2.358       .  S
O1372     Eu1398   2.355       .  S
O1373     Eu1971   2.355       .  S
O1373     Eu1999   2.356       .  S
O1373     Eu1400   2.366       .  S
C1374      C2257   1.488       .  S
C1375      C2241   1.484       .  S
C1376      C1569   1.493       .  S
C1377      C1577   1.487       .  S
H1378      O1379   0.965       .  S
O1379     Eu1971   2.350       .  S
O1379     Eu1400   2.361       .  S
O1379     Eu1998   2.352   1_554  S
H1380      O1381   0.965       .  S
O1381     Eu1399   2.360       .  S
O1381     Eu1401   2.350       .  S
O1382      C1405   1.288       .  A
O1382     Eu1398   2.439       .  S
O1383      C1406   1.292       .  A
O1383     Eu1399   2.456       .  S
O1384      C1407   1.291       .  A
O1384     Eu1400   2.452       .  S
O1385      C1408   1.292       .  A
O1385     Eu1401   2.459       .  S
O1386      C1409   1.292       .  A
O1386     Eu1401   2.461       .  S
O1387      C1410   1.290       .  A
O1387     Eu1400   2.444       .  S
O1388      C1411   1.284       .  A
O1388     Eu2002   2.414   1_554  S
O1389      C1412   1.290       .  A
O1389     Eu1402   2.445       .  S
O1390      C1411   1.300       .  A
O1390     Eu1400   2.506       .  S
O1391      C1412   1.296       .  A
O1391     Eu1401   2.487       .  S
O1392      C1407   1.296       .  A
O1392     Eu1998   2.481   1_554  S
O1393      C1410   1.295       .  A
O1393     Eu1999   2.477       .  S
O1394      C1409   1.298       .  A
O1394     Eu1399   2.495       .  S
O1395      C1408   1.294       .  A
O1395     Eu1398   2.474       .  S
O1396      C1405   1.291       .  A
O1396     Eu1402   2.456       .  S
O1397      C1406   1.291       .  A
O1397     Eu1402   2.456       .  S
Eu1398     O1992   2.470       .  S
Eu1398     O1979   2.362       .  S
Eu1398     O1416   2.353       .  S
Eu1398     O2004   2.349       .  S
Eu1399     O1993   2.507       .  S
Eu1399     O1973   2.350       .  S
Eu1399     O1403   2.356       .  S
Eu1399     O2014   2.362       .  S
Eu1400     O1414   2.360       .  S
Eu1400     O1404   2.350       .  S
Eu1401     O1403   2.362       .  S
Eu1401     O1416   2.372       .  S
Eu1402     O1988   2.447       .  S
Eu1402     O1403   2.350       .  S
Eu1402     O2014   2.354       .  S
Eu1402     O1416   2.351       .  S
Eu1402     O2004   2.343       .  S
O1404     Eu1998   2.342   1_554  S
O1404     Eu2002   2.343   1_554  S
C1405      C2217   1.477       .  S
C1406      C2225   1.486       .  S
C1407      C1441   1.489       .  S
C1408      C1457   1.482       .  S
C1409      C1473   1.497       .  S
C1410      C1417   1.484       .  S
C1411      C1545   1.488       .  S
C1412      C1601   1.490       .  S
H1413      O1414   0.965       .  S
O1414     Eu1999   2.347       .  S
O1414     Eu2002   2.352   1_554  S
H1415      O1416   0.965       .  S
C1417      C1418   1.409       .  A
C1417      C1422   1.406       .  A
C1418      C1419   1.398       .  A
C1418      H1427   1.083       .  S
C1419      C1420   1.402       .  A
C1419      H1428   1.084       .  S
C1420      C1426   1.405       .  A
C1420      C1421   1.413       .  A
C1421      C1423   1.401       .  A
C1421      C1422   1.404       .  A
C1422      H1429   1.084       .  S
C1423      C1424   1.398       .  A
C1423      H1430   1.084       .  S
C1424      C1425   1.407       .  A
C1424      H1431   1.083       .  S
C1425      C1426   1.409       .  A
C1426      H1432   1.084       .  S
C1433      C1434   1.408       .  A
C1433      C1438   1.410       .  A
C1434      C1435   1.398       .  A
C1434      H1443   1.083       .  S
C1435      C1436   1.403       .  A
C1435      H1444   1.084       .  S
C1436      C1442   1.405       .  A
C1436      C1437   1.412       .  A
C1437      C1439   1.403       .  A
C1437      C1438   1.405       .  A
C1438      H1445   1.084       .  S
C1439      C1440   1.400       .  A
C1439      H1446   1.084       .  S
C1440      C1441   1.407       .  A
C1440      H1447   1.083       .  S
C1441      C1442   1.411       .  A
C1442      H1448   1.084       .  S
C1449      C1450   1.406       .  A
C1449      C1454   1.409       .  A
C1450      C1451   1.399       .  A
C1450      H1459   1.083       .  S
C1451      C1452   1.402       .  A
C1451      H1460   1.084       .  S
C1452      C1458   1.406       .  A
C1452      C1453   1.414       .  A
C1453      C1455   1.404       .  A
C1453      C1454   1.408       .  A
C1454      H1461   1.084       .  S
C1455      C1456   1.400       .  A
C1455      H1462   1.084       .  S
C1456      C1457   1.407       .  A
C1456      H1463   1.083       .  S
C1457      C1458   1.406       .  A
C1458      H1464   1.084       .  S
C1465      C1466   1.408       .  A
C1465      C1470   1.410       .  A
C1466      C1467   1.401       .  A
C1466      H1475   1.083       .  S
C1467      C1468   1.405       .  A
C1467      H1476   1.084       .  S
C1468      C1474   1.408       .  A
C1468      C1469   1.411       .  A
C1469      C1471   1.404       .  A
C1469      C1470   1.407       .  A
C1470      H1477   1.084       .  S
C1471      C1472   1.402       .  A
C1471      H1478   1.084       .  S
C1472      C1473   1.408       .  A
C1472      H1479   1.083       .  S
C1473      C1474   1.414       .  A
C1474      H1480   1.084       .  S
C1481      C1482   1.409       .  A
C1481      C1486   1.404       .  A
C1482      C1483   1.400       .  A
C1482      H1491   1.083       .  S
C1483      C1484   1.403       .  A
C1483      H1492   1.084       .  S
C1484      C1490   1.408       .  A
C1484      C1485   1.414       .  A
C1485      C1487   1.400       .  A
C1485      C1486   1.404       .  A
C1486      H1493   1.084       .  S
C1487      C1488   1.396       .  A
C1487      H1494   1.084       .  S
C1488      C1489   1.408       .  A
C1488      H1495   1.083       .  S
C1489      C1490   1.410       .  A
C1490      H1496   1.084       .  S
C1497      C1498   1.407       .  A
C1497      C1502   1.406       .  A
C1498      C1499   1.395       .  A
C1498      H1507   1.083       .  S
C1499      C1500   1.399       .  A
C1499      H1508   1.084       .  S
C1500      C1506   1.400       .  A
C1500      C1501   1.414       .  A
C1501      C1503   1.400       .  A
C1501      C1502   1.401       .  A
C1502      H1509   1.084       .  S
C1503      C1504   1.395       .  A
C1503      H1510   1.084       .  S
C1504      C1505   1.409       .  A
C1504      H1511   1.083       .  S
C1505      C1506   1.402       .  A
C1506      H1512   1.084       .  S
C1513      C1514   1.405       .  A
C1513      C1518   1.404       .  A
C1514      C1515   1.394       .  A
C1514      H1523   1.084       .  S
C1515      C1516   1.398       .  A
C1515      H1524   1.083       .  S
C1516      C1522   1.409       .  A
C1516      C1517   1.419       .  A
C1517      C1519   1.399       .  A
C1517      C1518   1.411       .  A
C1518      H1525   1.085       .  S
C1519      C1520   1.398       .  A
C1519      H1526   1.084       .  S
C1520      C1521   1.406       .  A
C1520      H1527   1.074       .  S
C1521      C1522   1.400       .  A
C1522      H1528   1.084       .  S
C1529      C1530   1.408       .  A
C1529      C1534   1.404       .  A
C1530      C1531   1.393       .  A
C1530      H1539   1.083       .  S
C1531      C1532   1.398       .  A
C1531      H1540   1.084       .  S
C1532      C1538   1.401       .  A
C1532      C1533   1.415       .  A
C1533      C1535   1.399       .  A
C1533      C1534   1.402       .  A
C1534      H1541   1.084       .  S
C1535      C1536   1.393       .  A
C1535      H1542   1.084       .  S
C1536      C1537   1.408       .  A
C1536      H1543   1.083       .  S
C1537      C1538   1.402       .  A
C1538      H1544   1.084       .  S
C1545      C1546   1.413       .  A
C1545      C1550   1.402       .  A
C1546      C1547   1.396       .  A
C1546      H1555   1.083       .  S
C1547      C1548   1.398       .  A
C1547      H1556   1.084       .  S
C1548      C1554   1.411       .  A
C1548      C1549   1.417       .  A
C1549      C1551   1.395       .  A
C1549      C1550   1.408       .  A
C1550      H1557   1.084       .  S
C1551      C1552   1.392       .  A
C1551      H1558   1.084       .  S
C1552      C1553   1.412       .  A
C1552      H1559   1.083       .  S
C1553      C1554   1.405       .  A
C1554      H1560   1.084       .  S
C1561      C1562   1.410       .  A
C1561      C1566   1.407       .  A
C1562      C1563   1.399       .  A
C1562      H1571   1.083       .  S
C1563      C1564   1.400       .  A
C1563      H1572   1.084       .  S
C1564      C1570   1.412       .  A
C1564      C1565   1.415       .  A
C1565      C1567   1.399       .  A
C1565      C1566   1.410       .  A
C1566      H1573   1.084       .  S
C1567      C1568   1.397       .  A
C1567      H1574   1.084       .  S
C1568      C1569   1.411       .  A
C1568      H1575   1.083       .  S
C1569      C1570   1.408       .  A
C1570      H1576   1.084       .  S
C1577      C1578   1.410       .  A
C1577      C1582   1.404       .  A
C1578      C1579   1.397       .  A
C1578      H1587   1.083       .  S
C1579      C1580   1.398       .  A
C1579      H1588   1.084       .  S
C1580      C1586   1.412       .  A
C1580      C1581   1.418       .  A
C1581      C1583   1.397       .  A
C1581      C1582   1.411       .  A
C1582      H1589   1.084       .  S
C1583      C1584   1.395       .  A
C1583      H1590   1.084       .  S
C1584      C1585   1.407       .  A
C1584      H1591   1.075       .  S
C1585      C1586   1.403       .  A
C1586      H1592   1.084       .  S
C1593      C1594   1.412       .  A
C1593      C1598   1.405       .  A
C1594      C1595   1.400       .  A
C1594      H1603   1.083       .  S
C1595      C1596   1.402       .  A
C1595      H1604   1.084       .  S
C1596      C1602   1.411       .  A
C1596      C1597   1.415       .  A
C1597      C1599   1.398       .  A
C1597      C1598   1.406       .  A
C1598      H1605   1.084       .  S
C1599      C1600   1.394       .  A
C1599      H1606   1.084       .  S
C1600      C1601   1.410       .  A
C1600      H1607   1.083       .  S
C1601      C1602   1.409       .  A
C1602      H1608   1.084       .  S
C1609      C1610   1.405       .  A
C1609      C2214   1.408   1_556  A
C1610      C1611   1.395       .  A
C1610      H1619   1.083       .  S
C1611      C1612   1.401       .  A
C1611      H1620   1.083       .  S
C1612      C1618   1.402       .  A
C1612      C1613   1.414   1_556  A
C1613      C2215   1.402       .  A
C1613      C2214   1.404       .  A
C1614      C2209   1.403       .  A
C1614      C2213   1.397       .  A
C1614      H1621   1.084       .  S
C1615      C2213   1.400       .  A
C1615      C1616   1.393       .  A
C1615      H1622   1.084       .  S
C1616      C2217   1.406       .  A
C1616      H1623   1.083       .  S
C1617      C2005   1.480   1_554  S
C1617      C2216   1.407       .  A
C1617      C1618   1.406   1_554  A
C1618      H1624   1.084       .  S
C1625      C2006   1.481       .  S
C1625      C2226   1.406       .  A
C1625      C1630   1.409   1_554  A
C1626      C2225   1.408       .  A
C1626      C1627   1.395       .  A
C1626      H1635   1.083       .  S
C1627      C1628   1.400       .  A
C1627      H1636   1.084       .  S
C1628      C1634   1.403       .  A
C1628      C2229   1.413       .  A
C1629      C2228   1.413   1_556  A
C1629      C1631   1.403       .  A
C1629      C1630   1.404       .  A
C1630      H1637   1.084       .  S
C1631      C1632   1.399       .  A
C1631      H1638   1.084       .  S
C1632      C1633   1.408       .  A
C1632      H1639   1.083       .  S
C1633      C2234   1.407   1_556  A
C1634      C2233   1.407       .  A
C1634      H1640   1.084       .  S
C1641      C1975   1.482       .  S
C1641      C2242   1.407   1_556  A
C1641      C1646   1.408       .  A
C1642      C2241   1.409       .  A
C1642      C1643   1.397       .  A
C1642      H1651   1.083       .  S
C1643      C1644   1.402       .  A
C1643      H1652   1.084       .  S
C1644      C1650   1.401       .  A
C1644      C2245   1.412       .  A
C1645      C2244   1.414       .  A
C1645      C1647   1.402       .  A
C1645      C1646   1.406       .  A
C1646      H1653   1.084       .  S
C1647      C1648   1.398       .  A
C1647      H1654   1.083       .  S
C1648      C1649   1.407       .  A
C1648      H1655   1.083       .  S
C1649      C2250   1.405       .  A
C1650      C2249   1.410       .  A
C1650      H1656   1.084       .  S
C1657      C1974   1.482   1_556  S
C1657      C2258   1.407       .  A
C1657      C1662   1.408   1_556  A
C1658      C2257   1.407       .  A
C1658      C1659   1.399       .  A
C1658      H1667   1.083       .  S
C1659      C1660   1.403       .  A
C1659      H1668   1.084       .  S
C1660      C1666   1.407       .  A
C1660      C2261   1.413       .  A
C1661      C2260   1.412   1_554  A
C1661      C1663   1.402       .  A
C1661      C1662   1.402       .  A
C1662      H1669   1.084       .  S
C1663      C1664   1.397       .  A
C1663      H1670   1.084       .  S
C1664      C1665   1.407   1_554  A
C1664      H1671   1.083       .  S
C1665      C2266   1.406       .  A
C1666      C2265   1.408       .  A
C1666      H1672   1.084       .  S
C1673      C1674   1.410       .  A
C1674      C1675   1.396       .  A
C1674      H1683   1.083       .  S
C1675      C1676   1.400       .  A
C1675      H1684   1.084       .  S
C1676      C1682   1.405       .  A
C1677      C1679   1.397       .  A
C1677      C1678   1.399       .  A
C1678      H1685   1.084       .  S
C1679      C1680   1.392       .  A
C1679      H1686   1.084       .  S
C1680      H1687   1.083       .  S
C1681      C1682   1.409       .  A
C1682      H1688   1.084       .  S
C1689      C1690   1.413       .  A
C1690      C1691   1.399       .  A
C1690      H1699   1.083       .  S
C1691      C1692   1.401       .  A
C1691      H1700   1.084       .  S
C1692      C1698   1.411       .  A
C1693      C1695   1.397       .  A
C1693      C1694   1.406       .  A
C1694      H1701   1.084       .  S
C1695      C1696   1.394       .  A
C1695      H1702   1.084       .  S
C1696      H1703   1.083       .  S
C1697      C1698   1.410       .  A
C1698      H1704   1.084       .  S
C1705      C1706   1.411       .  A
C1706      C1707   1.398       .  A
C1706      H1715   1.083       .  S
C1707      C1708   1.400       .  A
C1707      H1716   1.084       .  S
C1708      C1714   1.410       .  A
C1709      C1711   1.399       .  A
C1709      C1710   1.411       .  A
C1710      H1717   1.084       .  S
C1711      C1712   1.396       .  A
C1711      H1718   1.083       .  S
C1712      H1719   1.083       .  S
C1713      C1714   1.408       .  A
C1714      H1720   1.084       .  S
C1721      C1726   1.406       .  A
C1722      C1723   1.393       .  A
C1722      H1731   1.083       .  S
C1723      C1724   1.397       .  A
C1723      H1732   1.084       .  S
C1724      C1730   1.407       .  A
C1725      C1727   1.399       .  A
C1725      C1726   1.411       .  A
C1726      H1733   1.084       .  S
C1727      C1728   1.398       .  A
C1727      H1734   1.084       .  S
C1728      C1729   1.414       .  A
C1728      H1735   1.083       .  S
C1730      H1736   1.084       .  S
C1737      C4138   1.411       .  A
C1737      C1742   1.407       .  A
C1738      C4137   1.411       .  A
C1738      C1739   1.400       .  A
C1738      H1747   1.083       .  S
C1739      C1740   1.402       .  A
C1739      H1748   1.084       .  S
C1740      C1746   1.410       .  A
C1740      C4141   1.414       .  A
C1741      C4140   1.414       .  A
C1741      C1743   1.400       .  A
C1741      C1742   1.407       .  A
C1742      H1749   1.084       .  S
C1743      C1744   1.397       .  A
C1743      H1750   1.084       .  S
C1744      C1745   1.411   1_455  A
C1744      H1751   1.083       .  S
C1745      C4146   1.409       .  A
C1746      C4145   1.409       .  A
C1746      H1752   1.084       .  S
C1753      C1754   1.407       .  A
C1753      C4158   1.404   1_455  A
C1754      C1755   1.392       .  A
C1754      H1763   1.083       .  S
C1755      C1756   1.399       .  A
C1755      H1764   1.084       .  S
C1756      C1762   1.398       .  A
C1756      C4157   1.414   1_455  A
C1757      C4156   1.414       .  A
C1757      C1759   1.400       .  A
C1757      C1758   1.400       .  A
C1758      C4153   1.404       .  A
C1758      H1765   1.084       .  S
C1759      C1760   1.396       .  A
C1759      H1766   1.084       .  S
C1760      C4161   1.408       .  A
C1760      H1767   1.083       .  S
C1761      C4160   1.408       .  A
C1761      C1762   1.402   1_655  A
C1762      H1768   1.084       .  S
C1769      C4170   1.412       .  A
C1769      C1774   1.403       .  A
C1770      C4169   1.412       .  A
C1770      C1771   1.394       .  A
C1770      H1779   1.083       .  S
C1771      C1772   1.397       .  A
C1771      H1780   1.084       .  S
C1772      C1778   1.410       .  A
C1772      C4173   1.418       .  A
C1773      C4172   1.418       .  A
C1773      C1775   1.396   1_455  A
C1773      C1774   1.409       .  A
C1774      H1781   1.084   1_455  S
C1775      C1776   1.394       .  A
C1775      H1782   1.084       .  S
C1776      C1777   1.414   1_655  A
C1776      H1783   1.083       .  S
C1777      C4178   1.404       .  A
C1778      C4177   1.403       .  A
C1778      H1784   1.084       .  S
C1785      C1786   1.411       .  A
C1785      C4190   1.408       .  A
C1786      C1787   1.398       .  A
C1786      H1795   1.083       .  S
C1787      C1788   1.400       .  A
C1787      H1796   1.084       .  S
C1788      C1794   1.410       .  A
C1788      C4189   1.414       .  A
C1789      C4188   1.414       .  A
C1789      C1791   1.400       .  A
C1789      C1790   1.409       .  A
C1790      C4185   1.407       .  A
C1790      H1797   1.084       .  S
C1791      C1792   1.398       .  A
C1791      H1798   1.084       .  S
C1792      C4193   1.411       .  A
C1792      H1799   1.083       .  S
C1793      C4192   1.411       .  A
C1793      C1794   1.409       .  A
C1794      H1800   1.084       .  S
O1801      C1812   1.300       .  A
O1801     Eu1837   2.500       .  S
O1802      C1813   1.285       .  A
O1802     Eu1836   2.417       .  S
O1803      C1814   1.293       .  A
O1803     Eu1809   2.467       .  S
O1804      C1815   1.290       .  A
O1804     Eu4209   2.453       .  S
O1805      C1815   1.292       .  A
O1805     Eu1839   2.463       .  S
O1806      C1814   1.292       .  A
O1806     Eu1838   2.464       .  S
O1807      C1813   1.297       .  A
O1808      C1812   1.292       .  A
O1808     Eu1809   2.455       .  S
Eu1809     O4204   2.453   1_455  S
Eu1809     O4219   2.367   1_455  S
Eu1809     O1811   2.354       .  S
Eu1809     O3610   2.349   1_455  S
O1810     Eu3609   2.347       .  S
O1810     Eu4236   2.349       .  S
O1811     Eu1837   2.371       .  S
O1811     Eu1838   2.347       .  S
C1812      C2393   1.497       .  S
C1813      C2337   1.482       .  S
C1814      C2265   1.488       .  S
C1815      C2233   1.487       .  S
H1816      O1817   0.964       .  S
O1817     Eu1836   2.362       .  S
H1818      O1819   0.965       .  S
O1819     Eu4209   2.367       .  S
O1819     Eu4237   2.384       .  S
O1819     Eu1839   2.348       .  S
O1820      C1843   1.291       .  A
O1821      C1844   1.302   1_455  A
O1822      C1845   1.295       .  A
O1823      C1846   1.285       .  A
O1824      C1847   1.287       .  A
O1824     Eu1839   2.429       .  S
O1825      C1848   1.295       .  A
O1825     Eu1838   2.472       .  S
O1826      C1849   1.294       .  A
O1826     Eu1840   2.474   1_455  S
O1827      C1850   1.293       .  A
O1827     Eu4240   2.468       .  S
O1828      C1849   1.289       .  A
O1829      C1850   1.288       .  A
O1830      C1845   1.289       .  A
O1830     Eu1836   2.437       .  S
O1831      C1848   1.297       .  A
O1831     Eu1837   2.489       .  S
O1832      C1847   1.298       .  A
O1832     Eu4237   2.495       .  S
O1833      C1846   1.292       .  A
O1833     Eu4236   2.465       .  S
O1834      C1843   1.286       .  A
O1835      C1844   1.285       .  A
O1835     Eu1840   2.421       .  S
Eu1836     O4233   2.464   1_455  S
Eu1836     O4210   2.348   1_455  S
Eu1836     O3054   2.330   1_455  S
Eu1837     O4232   2.495   1_455  S
Eu1837     O4219   2.384   1_455  S
Eu1837     O3041   2.356   1_455  S
Eu1840     O4227   2.468       .  S
Eu1840     O4241   2.345       .  S
Eu1840     O1852   2.356   1_655  S
Eu1840     O3654   2.350       .  S
O1841     Eu3037   2.353       .  S
O1841     Eu4240   2.345       .  S
C1843      C2361   1.466       .  S
C1844      C2377   1.491       .  S
C1845      C2289   1.484       .  S
C1846      C2281   1.473       .  S
C1847      C2329   1.481       .  S
C1848      C2305   1.501       .  S
C1849      C2249   1.483       .  S
C1850      C2209   1.477       .  S
H1851      O1852   0.965       .  S
H1853      O1854   0.965       .  S
O1854     Eu3036   2.329       .  S
O1854     Eu3640   2.341       .  S
O1855      C1866   1.297       .  A
O1855     Eu1891   2.490       .  S
O1856      C1867   1.287       .  A
O1856     Eu1890   2.425       .  S
O1857      C1868   1.297       .  A
O1857     Eu1863   2.498       .  S
O1858      C1869   1.293       .  A
O1858     Eu4263   2.467       .  S
O1859      C1869   1.291       .  A
O1859     Eu1893   2.451       .  S
O1860      C1868   1.283       .  A
O1860     Eu1892   2.412       .  S
O1861      C1867   1.299       .  A
O1861     Eu1863   2.503       .  S
O1862      C1866   1.294       .  A
O1862     Eu1863   2.464       .  S
Eu1863     O4258   2.468   1_455  S
Eu1863     O4273   2.372   1_455  S
Eu1863     O1865   2.351       .  S
Eu1863     O4264   2.363   1_455  S
Eu1863     O1871   2.342       .  S
O1864     Eu4263   2.362       .  S
O1864     Eu1893   2.345       .  S
O1864     Eu4290   2.354       .  S
O1865     Eu1891   2.361       .  S
O1865     Eu1892   2.332       .  S
C1866      C2385   1.498       .  S
C1867      C2345   1.489       .  S
C1868      C2121   1.483       .  S
C1869      C2081   1.483       .  S
H1870      O1871   0.967       .  S
O1871     Eu1892   2.341       .  S
O1871     Eu1890   2.366       .  S
H1872      O1873   0.967       .  S
O1873     Eu4263   2.372       .  S
O1873     Eu4291   2.370       .  S
O1873     Eu1893   2.359       .  S
O1874      C1897   1.293       .  A
O1874     Eu1890   2.463       .  S
O1875      C1898   1.298       .  A
O1875     Eu1891   2.502       .  S
O1876      C1899   1.287       .  A
O1876     Eu1892   2.432       .  S
O1877      C1900   1.287       .  A
O1877     Eu1893   2.434       .  S
O1878      C1901   1.284       .  A
O1878     Eu1893   2.412       .  S
O1879      C1902   1.286       .  A
O1879     Eu1892   2.429       .  S
O1880      C1903   1.291       .  A
O1880     Eu1894   2.454       .  S
O1881      C1904   1.291       .  A
O1881     Eu4294   2.456       .  S
O1882      C1903   1.285       .  A
O1882     Eu1892   2.426       .  S
O1883      C1904   1.291       .  A
O1883     Eu1893   2.463       .  S
O1884      C1899   1.297       .  A
O1884     Eu1890   2.489       .  S
O1885      C1902   1.298       .  A
O1885     Eu1891   2.494       .  S
O1886      C1901   1.298       .  A
O1886     Eu4291   2.500       .  S
O1887      C1900   1.298       .  A
O1887     Eu4290   2.502       .  S
O1888      C1897   1.290       .  A
O1888     Eu1894   2.449       .  S
O1889      C1898   1.288       .  A
O1889     Eu1894   2.434       .  S
Eu1890     O4287   2.501   1_455  S
Eu1890     O4264   2.354   1_455  S
Eu1890     O4308   2.355   1_455  S
Eu1890     O1896   2.360       .  S
Eu1891     O4286   2.500   1_455  S
Eu1891     O4273   2.370   1_455  S
Eu1891     O4295   2.355   1_455  S
Eu1891     O1906   2.365       .  S
Eu1892     O1906   2.344       .  S
Eu1892     O1896   2.342       .  S
Eu1893     O1895   2.340       .  S
Eu1893     O1908   2.347       .  S
Eu1894     O4281   2.457   1_455  S
Eu1894     O4295   2.348   1_455  S
Eu1894     O1906   2.349       .  S
Eu1894     O4308   2.353   1_455  S
Eu1894     O1896   2.349       .  S
O1895     Eu4291   2.355       .  S
O1895     Eu4294   2.347       .  S
C1897      C2353   1.471       .  S
C1898      C2369   1.484       .  S
C1899      C2185   1.479       .  S
C1900      C2193   1.491       .  S
C1901      C2153   1.485       .  S
C1902      C2161   1.487       .  S
C1903      C2137   1.473       .  S
C1904      C2097   1.485       .  S
H1905      O1906   0.965       .  S
H1907      O1908   0.966       .  S
O1908     Eu4290   2.355       .  S
O1908     Eu4294   2.353       .  S
O1909      C1920   1.284       .  A
O1909     Eu1945   2.417       .  S
O1910      C1921   1.294       .  A
O1910     Eu1944   2.464       .  S
O1911      C1922   1.292       .  A
O1911     Eu1917   2.460       .  S
O1912      C1923   1.296       .  A
O1913      C1923   1.293       .  A
O1913     Eu1947   2.465       .  S
O1914      C1922   1.294       .  A
O1914     Eu1946   2.467       .  S
O1915      C1921   1.298       .  A
O1915     Eu1917   2.492       .  S
O1916      C1920   1.300       .  A
O1916     Eu1917   2.521       .  S
Eu1917     O1919   2.357       .  S
Eu1917     O1925   2.372       .  S
O1918     Eu1947   2.355       .  S
O1919     Eu1945   2.340       .  S
O1919     Eu1946   2.365       .  S
C1922      C2033   1.486       .  S
C1923      C2025   1.496       .  S
H1924      O1925   0.964       .  S
O1925     Eu1946   2.354       .  S
O1925     Eu1944   2.353       .  S
H1926      O1927   0.965       .  S
O1927     Eu1947   2.367       .  S
O1928      C1951   1.297       .  A
O1928     Eu1944   2.496   1_545  S
O1929      C1952   1.282   1_565  A
O1929     Eu1945   2.403       .  S
O1930      C1953   1.291       .  A
O1930     Eu1946   2.456       .  S
O1931      C1954   1.299       .  A
O1931     Eu1947   2.505       .  S
O1932      C1955   1.299       .  A
O1932     Eu1947   2.501       .  S
O1933      C1956   1.288       .  A
O1933     Eu1946   2.434       .  S
O1934      C1957   1.291       .  A
O1934     Eu1948   2.453   1_565  S
O1935      C1958   1.290       .  A
O1936      C1957   1.296       .  A
O1936     Eu1946   2.485       .  S
O1937      C1958   1.293       .  A
O1937     Eu1947   2.464       .  S
O1938      C1953   1.287       .  A
O1938     Eu1944   2.430       .  S
O1939      C1956   1.296       .  A
O1939     Eu1945   2.484       .  S
O1940      C1955   1.290       .  A
O1941      C1954   1.285       .  A
O1942      C1951   1.289       .  A
O1942     Eu1948   2.447       .  S
O1943      C1952   1.294       .  A
O1943     Eu1948   2.470       .  S
Eu1944     O1950   2.344       .  S
Eu1945     O1960   2.344       .  S
Eu1946     O1960   2.352       .  S
Eu1946     O1950   2.346       .  S
Eu1947     O1949   2.363       .  S
Eu1947     O1962   2.362       .  S
Eu1948     O1960   2.347   1_545  S
Eu1948     O1950   2.357   1_545  S
C1953      C2129   1.474       .  S
C1954      C2113   1.486       .  S
C1955      C2089   1.491       .  S
C1956      C2105   1.486       .  S
C1957      C2049   1.490       .  S
C1958      C2065   1.484       .  S
H1959      O1960   0.965       .  S
H1961      O1962   0.966       .  S
O1963      C1974   1.291       .  A
O1963     Eu1999   2.455       .  S
O1964      C1975   1.291       .  A
O1964     Eu1998   2.456       .  S
O1965      C1976   1.286       .  A
O1966      C1977   1.286       .  A
O1966     Eu1971   2.425   1_556  S
O1967      C1977   1.295       .  A
O1967     Eu2001   2.477       .  S
O1968      C1976   1.298       .  A
O1968     Eu2000   2.499       .  S
O1969      C1975   1.290       .  A
O1969     Eu1971   2.455   1_556  S
O1970      C1974   1.291       .  A
O1970     Eu1971   2.456       .  S
Eu1971     O1981   2.349   1_554  S
Eu1971     O1972   2.347   1_554  S
O1972     Eu2001   2.362       .  S
O1972     Eu1998   2.349       .  S
O1973     Eu2000   2.358       .  S
C1976      C2169   1.488       .  S
C1977      C2177   1.479       .  S
H1978      O1979   0.965       .  S
O1979     Eu2000   2.366       .  S
H1980      O1981   0.965       .  S
O1981     Eu1999   2.353   1_556  S
O1981     Eu2001   2.362       .  S
O1982      C2005   1.290       .  A
O1982     Eu1998   2.449       .  S
O1983      C2006   1.291       .  A
O1983     Eu1999   2.455       .  S
O1984      C2007   1.292       .  A
O1984     Eu2000   2.457       .  S
O1985      C2008   1.294       .  A
O1985     Eu2001   2.465       .  S
O1986      C2009   1.294       .  A
O1986     Eu2001   2.468       .  S
O1987      C2010   1.292       .  A
O1987     Eu2000   2.454       .  S
O1988      C2011   1.289       .  A
O1989      C2012   1.289       .  A
O1989     Eu2002   2.447       .  S
O1990      C2011   1.298       .  A
O1990     Eu2000   2.500       .  S
O1991      C2012   1.297       .  A
O1991     Eu2001   2.497       .  S
O1992      C2007   1.294       .  A
O1993      C2010   1.300       .  A
O1994      C2009   1.292       .  A
O1994     Eu1999   2.458   1_556  S
O1995      C2008   1.293       .  A
O1995     Eu1998   2.466       .  S
O1996      C2005   1.291       .  A
O1996     Eu2002   2.456       .  S
O1997      C2006   1.289   1_556  A
O1997     Eu2002   2.447       .  S
Eu1998     O2016   2.369       .  S
Eu1999     O2003   2.356   1_554  S
Eu2000     O2014   2.363       .  S
Eu2000     O2004   2.356       .  S
Eu2001     O2003   2.349       .  S
Eu2001     O2016   2.361       .  S
Eu2002     O2003   2.335       .  S
Eu2002     O2016   2.345       .  S
C2007      C2041   1.485       .  S
C2008      C2057   1.489       .  S
C2009      C2073   1.487       .  S
C2010      C2017   1.500       .  S
C2011      C2145   1.490       .  S
C2012      C2201   1.490       .  S
H2013      O2014   0.965       .  S
H2015      O2016   0.966       .  S
C2017      C2018   1.412       .  A
C2017      C2022   1.410       .  A
C2018      C2019   1.402       .  A
C2018      H2027   1.083       .  S
C2019      C2020   1.403       .  A
C2019      H2028   1.084       .  S
C2020      C2026   1.413       .  A
C2020      C2021   1.413       .  A
C2021      C2023   1.402       .  A
C2021      C2022   1.412       .  A
C2022      H2029   1.084       .  S
C2023      C2024   1.400       .  A
C2023      H2030   1.083       .  S
C2024      C2025   1.408       .  A
C2024      H2031   1.083       .  S
C2025      C2026   1.412       .  A
C2026      H2032   1.084       .  S
C2033      C2034   1.406       .  A
C2033      C2038   1.411       .  A
C2034      C2035   1.397       .  A
C2034      H2043   1.083       .  S
C2035      C2036   1.402       .  A
C2035      H2044   1.084       .  S
C2036      C2042   1.403       .  A
C2036      C2037   1.412       .  A
C2037      C2039   1.404       .  A
C2037      C2038   1.406       .  A
C2038      H2045   1.084       .  S
C2039      C2040   1.400       .  A
C2039      H2046   1.084       .  S
C2040      C2041   1.407       .  A
C2040      H2047   1.083       .  S
C2041      C2042   1.408       .  A
C2042      H2048   1.084       .  S
C2049      C2050   1.410       .  A
C2049      C2054   1.408       .  A
C2050      C2051   1.400       .  A
C2050      H2059   1.083       .  S
C2051      C2052   1.402       .  A
C2051      H2060   1.084       .  S
C2052      C2058   1.407       .  A
C2052      C2053   1.413       .  A
C2053      C2055   1.401       .  A
C2053      C2054   1.406       .  A
C2054      H2061   1.084       .  S
C2055      C2056   1.398       .  A
C2055      H2062   1.084       .  S
C2056      C2057   1.408       .  A
C2056      H2063   1.083       .  S
C2057      C2058   1.410       .  A
C2058      H2064   1.084       .  S
C2065      C2066   1.406       .  A
C2065      C2070   1.411       .  A
C2066      C2067   1.393       .  A
C2066      H2075   1.083       .  S
C2067      C2068   1.399       .  A
C2067      H2076   1.084       .  S
C2068      C2074   1.402       .  A
C2068      C2069   1.413       .  A
C2069      C2071   1.403       .  A
C2069      C2070   1.408       .  A
C2070      H2077   1.084       .  S
C2071      C2072   1.401       .  A
C2071      H2078   1.084       .  S
C2072      C2073   1.409       .  A
C2072      H2079   1.083       .  S
C2073      C2074   1.406       .  A
C2074      H2080   1.084       .  S
C2081      C2082   1.407       .  A
C2081      C2086   1.407       .  A
C2082      C2083   1.398       .  A
C2082      H2091   1.083       .  S
C2083      C2084   1.402       .  A
C2083      H2092   1.083       .  S
C2084      C2090   1.409       .  A
C2084      C2085   1.415       .  A
C2085      C2087   1.401       .  A
C2085      C2086   1.408       .  A
C2086      H2093   1.084       .  S
C2087      C2088   1.399       .  A
C2087      H2094   1.084       .  S
C2088      C2089   1.410       .  A
C2088      H2095   1.083       .  S
C2089      C2090   1.407       .  A
C2090      H2096   1.084       .  S
C2097      C2098   1.407       .  A
C2097      C2102   1.408       .  A
C2098      C2099   1.397       .  A
C2098      H2107   1.083       .  S
C2099      C2100   1.401       .  A
C2099      H2108   1.084       .  S
C2100      C2106   1.405       .  A
C2100      C2101   1.414       .  A
C2101      C2103   1.400       .  A
C2101      C2102   1.405       .  A
C2102      H2109   1.084       .  S
C2103      C2104   1.397       .  A
C2103      H2110   1.084       .  S
C2104      C2105   1.410       .  A
C2104      H2111   1.083       .  S
C2105      C2106   1.406       .  A
C2106      H2112   1.084       .  S
C2113      C2114   1.411       .  A
C2113      C2118   1.405       .  A
C2114      C2115   1.392       .  A
C2114      H2123   1.083       .  S
C2115      C2116   1.395       .  A
C2115      H2124   1.084       .  S
C2116      C2122   1.409       .  A
C2116      C2117   1.419       .  A
C2117      C2119   1.398       .  A
C2117      C2118   1.412       .  A
C2118      H2125   1.084       .  S
C2119      C2120   1.395       .  A
C2119      H2126   1.084       .  S
C2120      C2121   1.411       .  A
C2120      H2127   1.083       .  S
C2121      C2122   1.401       .  A
C2122      H2128   1.084       .  S
C2129      C2130   1.407       .  A
C2129      C2134   1.405       .  A
C2130      C2131   1.391       .  A
C2130      H2139   1.083       .  S
C2131      C2132   1.397       .  A
C2131      H2140   1.084       .  S
C2132      C2138   1.396       .  A
C2132      C2133   1.414       .  A
C2133      C2135   1.400       .  A
C2133      C2134   1.400       .  A
C2134      H2141   1.084       .  S
C2135      C2136   1.394       .  A
C2135      H2142   1.084       .  S
C2136      C2137   1.408       .  A
C2136      H2143   1.083       .  S
C2137      C2138   1.401       .  A
C2138      H2144   1.084       .  S
C2145      C2146   1.410       .  A
C2145      C2150   1.404       .  A
C2146      C2147   1.400       .  A
C2146      H2155   1.083       .  S
C2147      C2148   1.400       .  A
C2147      H2156   1.084       .  S
C2148      C2154   1.412       .  A
C2148      C2149   1.417       .  A
C2149      C2151   1.397       .  A
C2149      C2150   1.409       .  A
C2150      H2157   1.084       .  S
C2151      C2152   1.393       .  A
C2151      H2158   1.084       .  S
C2152      C2153   1.411       .  A
C2152      H2159   1.083       .  S
C2153      C2154   1.406       .  A
C2154      H2160   1.084       .  S
C2161      C2162   1.412       .  A
C2161      C2166   1.403       .  A
C2162      C2163   1.398       .  A
C2162      H2171   1.083       .  S
C2163      C2164   1.400       .  A
C2163      H2172   1.084       .  S
C2164      C2170   1.410       .  A
C2164      C2165   1.416       .  A
C2165      C2167   1.396       .  A
C2165      C2166   1.404       .  A
C2166      H2173   1.084       .  S
C2167      C2168   1.392       .  A
C2167      H2174   1.084       .  S
C2168      C2169   1.411       .  A
C2168      H2175   1.083       .  S
C2169      C2170   1.407       .  A
C2170      H2176   1.084       .  S
C2177      C2178   1.409       .  A
C2177      C2182   1.404       .  A
C2178      C2179   1.392       .  A
C2178      H2187   1.083       .  S
C2179      C2180   1.396       .  A
C2179      H2188   1.084       .  S
C2180      C2186   1.404       .  A
C2180      C2181   1.417       .  A
C2181      C2183   1.399       .  A
C2181      C2182   1.406       .  A
C2182      H2189   1.084       .  S
C2183      C2184   1.395       .  A
C2183      H2190   1.084       .  S
C2184      C2185   1.410       .  A
C2184      H2191   1.083       .  S
C2185      C2186   1.401       .  A
C2186      H2192   1.084       .  S
C2193      C2194   1.410       .  A
C2193      C2198   1.407       .  A
C2194      C2195   1.398       .  A
C2194      H2203   1.083       .  S
C2195      C2196   1.400       .  A
C2195      H2204   1.084       .  S
C2196      C2202   1.412       .  A
C2196      C2197   1.416       .  A
C2197      C2199   1.401       .  A
C2197      C2198   1.412       .  A
C2198      H2205   1.084       .  S
C2199      C2200   1.399       .  A
C2199      H2206   1.084       .  S
C2200      C2201   1.410       .  A
C2200      H2207   1.083       .  S
C2201      C2202   1.407       .  A
C2202      H2208   1.084       .  S
C2209      C2210   1.408       .  A
C2210      C2211   1.398       .  A
C2210      H2219   1.083       .  S
C2211      C2212   1.403       .  A
C2211      H2220   1.084       .  S
C2212      C2218   1.401       .  A
C2212      C2213   1.413       .  A
C2214      H2221   1.084       .  S
C2215      C2216   1.397       .  A
C2215      H2222   1.084       .  S
C2216      H2223   1.083       .  S
C2217      C2218   1.408       .  A
C2218      H2224   1.084       .  S
C2225      C2230   1.410       .  A
C2226      C2227   1.395       .  A
C2226      H2235   1.083       .  S
C2227      C2228   1.401       .  A
C2227      H2236   1.084       .  S
C2228      C2234   1.402       .  A
C2229      C2231   1.403       .  A
C2229      C2230   1.407       .  A
C2230      H2237   1.084       .  S
C2231      C2232   1.399       .  A
C2231      H2238   1.084       .  S
C2232      C2233   1.409       .  A
C2232      H2239   1.083       .  S
C2234      H2240   1.084       .  S
C2241      C2246   1.407       .  A
C2242      C2243   1.394       .  A
C2242      H2251   1.083       .  S
C2243      C2244   1.399   1_554  A
C2243      H2252   1.084       .  S
C2244      C2250   1.402       .  A
C2245      C2247   1.402       .  A
C2245      C2246   1.402       .  A
C2246      H2253   1.084       .  S
C2247      C2248   1.397       .  A
C2247      H2254   1.084       .  S
C2248      C2249   1.406       .  A
C2248      H2255   1.083       .  S
C2250      H2256   1.084   1_556  S
C2257      C2262   1.410       .  A
C2258      C2259   1.396       .  A
C2258      H2267   1.083       .  S
C2259      C2260   1.401       .  A
C2259      H2268   1.084       .  S
C2260      C2266   1.400       .  A
C2261      C2263   1.404       .  A
C2261      C2262   1.409       .  A
C2262      H2269   1.084       .  S
C2263      C2264   1.402       .  A
C2263      H2270   1.084       .  S
C2264      C2265   1.408       .  A
C2264      H2271   1.083       .  S
C2266      H2272   1.084       .  S
C2273      C2274   1.409       .  A
C2274      C2275   1.393       .  A
C2274      H2283   1.083       .  S
C2275      C2276   1.398       .  A
C2275      H2284   1.084       .  S
C2276      C2282   1.401       .  A
C2277      C2279   1.396       .  A
C2277      C2278   1.397       .  A
C2278      H2285   1.084       .  S
C2279      C2280   1.390       .  A
C2279      H2286   1.084       .  S
C2280      H2287   1.083       .  S
C2281      C2282   1.403       .  A
C2282      H2288   1.084       .  S
C2289      C2290   1.408       .  A
C2290      C2291   1.396       .  A
C2290      H2299   1.083       .  S
C2291      C2292   1.400       .  A
C2291      H2300   1.083       .  S
C2292      C2298   1.409       .  A
C2293      C2295   1.401       .  A
C2293      C2294   1.408   1_545  A
C2294      H2301   1.084   1_565  S
C2295      C2296   1.399       .  A
C2295      H2302   1.084       .  S
C2296      H2303   1.083       .  S
C2297      C2298   1.407       .  A
C2298      H2304   1.084       .  S
C2305      C2306   1.411       .  A
C2306      C2307   1.402       .  A
C2306      H2315   1.083       .  S
C2307      C2308   1.403       .  A
C2307      H2316   1.084       .  S
C2308      C2314   1.415       .  A
C2309      C2311   1.401   1_565  A
C2309      C2310   1.412       .  A
C2310      H2317   1.084   1_565  S
C2311      C2312   1.399       .  A
C2311      H2318   1.084       .  S
C2312      H2319   1.083       .  S
C2313      C2314   1.413       .  A
C2314      H2320   1.084       .  S
C2321      C2326   1.405       .  A
C2322      C2323   1.396       .  A
C2322      H2331   1.083       .  S
C2323      C2324   1.398       .  A
C2323      H2332   1.084       .  S
C2324      C2330   1.411       .  A
C2325      C2327   1.400       .  A
C2325      C2326   1.413       .  A
C2326      H2333   1.084       .  S
C2327      C2328   1.396       .  A
C2327      H2334   1.083       .  S
C2328      C2329   1.408       .  A
C2328      H2335   1.084       .  S
C2330      H2336   1.084       .  S
C2337      C4738   1.411       .  A
C2337      C2342   1.403       .  A
C2338      C4737   1.411       .  A
C2338      C2339   1.394       .  A
C2338      H2347   1.083       .  S
C2339      C2340   1.398       .  A
C2339      H2348   1.084       .  S
C2340      C2346   1.407       .  A
C2340      C4741   1.416       .  A
C2341      C4740   1.416       .  A
C2341      C2343   1.396       .  A
C2341      C2342   1.405       .  A
C2342      H2349   1.084       .  S
C2343      C2344   1.394   1_455  A
C2343      H2350   1.084   1_455  S
C2344      C2345   1.412   1_655  A
C2344      H2351   1.083       .  S
C2345      C4746   1.405       .  A
C2346      C4745   1.405       .  A
C2346      H2352   1.084       .  S
C2353      C2354   1.405       .  A
C2353      C4758   1.404   1_455  A
C2354      C2355   1.395       .  A
C2354      H2363   1.083       .  S
C2355      C2356   1.400       .  A
C2355      H2364   1.084       .  S
C2356      C2362   1.400       .  A
C2356      C4757   1.416   1_455  A
C2357      C4756   1.416       .  A
C2357      C2359   1.401       .  A
C2357      C2358   1.402       .  A
C2358      C4753   1.403       .  A
C2358      H2365   1.085       .  S
C2359      C2360   1.395       .  A
C2359      H2366   1.084       .  S
C2360      C4761   1.405       .  A
C2360      H2367   1.084       .  S
C2361      C4760   1.405       .  A
C2361      C2362   1.400   1_655  A
C2362      H2368   1.085       .  S
C2369      C4770   1.408       .  A
C2369      C2374   1.407   1_455  A
C2370      C4769   1.408       .  A
C2370      C2371   1.394       .  A
C2370      H2379   1.083       .  S
C2371      C2372   1.398       .  A
C2371      H2380   1.083       .  S
C2372      C2378   1.409       .  A
C2372      C4773   1.417       .  A
C2373      C4772   1.417   1_655  A
C2373      C2375   1.401       .  A
C2373      C2374   1.413       .  A
C2374      H2381   1.084       .  S
C2375      C2376   1.401       .  A
C2375      H2382   1.084       .  S
C2376      C2377   1.413       .  A
C2376      H2383   1.084       .  S
C2377      C4778   1.402   1_655  A
C2378      C4777   1.402       .  A
C2378      H2384   1.084       .  S
C2385      C2386   1.410       .  A
C2385      C4790   1.412       .  A
C2386      C2387   1.397       .  A
C2386      H2395   1.083       .  S
C2387      C2388   1.399       .  A
C2387      H2396   1.084       .  S
C2388      C2394   1.411       .  A
C2388      C4789   1.414       .  A
C2389      C4788   1.414       .  A
C2389      C2391   1.402       .  A
C2389      C2390   1.415       .  A
C2390      C4785   1.412       .  A
C2390      H2397   1.084       .  S
C2391      C2392   1.402       .  A
C2391      H2398   1.084       .  S
C2392      C4793   1.412       .  A
C2392      H2399   1.083       .  S
C2393      C4792   1.412       .  A
C2393      C2394   1.408       .  A
C2394      H2400   1.084       .  S
O2401      C2412   1.298       .  A
O2401     Eu2437   2.494   1_545  S
O2402      C2413   1.289       .  A
O2402     Eu2436   2.440   1_545  S
O2403      C2414   1.292       .  A
O2403     Eu2409   2.458       .  S
O2404      C2415   1.291       .  A
O2405      C2415   1.291       .  A
O2405     Eu2439   2.459       .  S
O2406      C2414   1.289       .  A
O2406     Eu2438   2.446   1_545  S
O2407      C2413   1.296       .  A
O2407     Eu3009   2.482       .  S
O2408      C2412   1.294       .  A
O2408     Eu2409   2.469   1_554  S
Eu2409     O3007   2.484       .  S
Eu2409     O2411   2.353   1_556  S
Eu2409     O3017   2.353       .  S
O2410     Eu3039   2.337       .  S
O2411     Eu2437   2.372   1_545  S
O2411     Eu2438   2.354   1_544  S
C2412      C2993   1.499       .  S
C2413      C2937   1.488       .  S
C2414      C2865   1.481       .  S
C2415      C2833   1.484       .  S
H2416      O2417   0.964       .  S
O2417     Eu3009   2.343       .  S
O2417     Eu3038   2.348   1_545  S
O2417     Eu2436   2.364   1_545  S
H2418      O2419   0.965       .  S
O2419     Eu2439   2.355   1_554  S
O2420      C2443   1.293       .  A
O2420     Eu3636   2.464       .  S
O2421      C2444   1.302       .  A
O2421     Eu3637   2.523       .  S
O2422      C2445   1.301       .  A
O2422     Eu3038   2.512       .  S
O2423      C2446   1.289       .  A
O2423     Eu3039   2.448       .  S
O2424      C2447   1.284       .  A
O2424     Eu2439   2.407   1_554  S
O2425      C2448   1.290       .  A
O2425     Eu2438   2.446   1_554  S
O2426      C2449   1.290       .  A
O2426     Eu2440   2.454   1_556  S
O2427      C2450   1.289   1_554  A
O2428      C2449   1.290       .  A
O2428     Eu3638   2.448       .  S
O2429      C2450   1.296       .  A
O2429     Eu3639   2.485       .  S
O2430      C2445   1.287       .  A
O2430     Eu2436   2.426       .  S
O2431      C2448   1.300       .  A
O2431     Eu2437   2.504       .  S
O2432      C2447   1.303       .  A
O2433      C2446   1.290   1_565  A
O2434      C2443   1.286       .  A
O2434     Eu3040   2.427       .  S
O2435      C2444   1.284       .  A
O2435     Eu2440   2.411       .  S
Eu2436     O3620   2.469       .  S
Eu2436     O3642   2.351       .  S
Eu2437     O3621   2.518       .  S
Eu2437     O3652   2.370       .  S
Eu2438     O3022   2.477       .  S
Eu2438     O3628   2.451       .  S
Eu2438     O3017   2.344   1_565  S
Eu2438     O3652   2.359   1_556  S
Eu2438     O4242   2.342       .  S
Eu2439     O3023   2.426       .  S
Eu2439     O3629   2.465   1_545  S
Eu2439     O3010   2.332       .  S
Eu2439     O3641   2.357   1_546  S
Eu2439     O4254   2.339   1_545  S
Eu2440     O3034   2.435   1_554  S
Eu2440     O2452   2.352       .  S
Eu2440     O3042   2.337   1_554  S
O2441     Eu3639   2.353   1_554  S
O2442     Eu3636   2.351       .  S
O2442     Eu4238   2.353       .  S
O2442     Eu3040   2.351       .  S
C2443      C2961   1.472       .  S
C2444      C2977   1.491       .  S
C2445      C2889   1.493       .  S
C2446      C2881   1.480       .  S
C2447      C2929   1.487       .  S
C2448      C2905   1.496       .  S
C2449      C2849   1.483       .  S
C2450      C2809   1.486       .  S
H2451      O2452   0.964       .  S
O2452     Eu3637   2.373       .  S
O2452     Eu3638   2.362   1_554  S
H2453      O2454   0.966       .  S
O2454     Eu4239   2.347       .  S
O2455      C2466   1.297       .  A
O2455     Eu2491   2.484       .  S
O2456      C2467   1.291       .  A
O2456     Eu2490   2.445       .  S
O2457      C2468   1.300       .  A
O2457     Eu2463   2.515       .  S
O2458      C2469   1.295       .  A
O2459      C2469   1.290       .  A
O2459     Eu2493   2.449       .  S
O2460      C2468   1.283       .  A
O2460     Eu2492   2.416       .  S
O2461      C2467   1.299       .  A
O2461     Eu2463   2.500       .  S
O2462      C2466   1.294       .  A
O2462     Eu2463   2.460       .  S
Eu2463     O2465   2.366       .  S
Eu2463     O2471   2.338       .  S
O2464     Eu2493   2.345       .  S
O2465     Eu2491   2.378       .  S
O2465     Eu2492   2.341       .  S
C2466      C2985   1.493       .  S
C2467      C2945   1.493       .  S
C2468      C2721   1.484       .  S
C2469      C2681   1.485       .  S
H2470      O2471   0.967       .  S
O2471     Eu2492   2.346       .  S
O2471     Eu2490   2.361       .  S
H2472      O2473   0.967       .  S
O2473     Eu2493   2.351       .  S
O2474      C2497   1.291       .  A
O2474     Eu2490   2.450       .  S
O2475      C2498   1.299       .  A
O2475     Eu2491   2.503       .  S
O2476      C2499   1.282       .  A
O2476     Eu2492   2.401       .  S
O2477      C2500   1.285       .  A
O2477     Eu2493   2.421       .  S
O2478      C2501   1.284       .  A
O2478     Eu2493   2.412       .  S
O2479      C2502   1.287       .  A
O2479     Eu2492   2.436       .  S
O2480      C2503   1.292       .  A
O2480     Eu2494   2.463       .  S
O2481      C2504   1.288       .  A
O2482      C2503   1.284       .  A
O2482     Eu2492   2.424       .  S
O2483      C2504   1.291       .  A
O2483     Eu2493   2.464       .  S
O2484      C2499   1.300       .  A
O2484     Eu2490   2.511       .  S
O2485      C2502   1.298       .  A
O2485     Eu2491   2.498       .  S
O2486      C2501   1.298       .  A
O2487      C2500   1.301       .  A
O2488      C2497   1.289       .  A
O2488     Eu2494   2.441       .  S
O2489      C2498   1.287       .  A
O2489     Eu2494   2.424       .  S
Eu2490     O2496   2.361       .  S
Eu2491     O2506   2.358       .  S
Eu2492     O2506   2.332       .  S
Eu2492     O2496   2.342       .  S
Eu2493     O2495   2.343       .  S
Eu2493     O2508   2.340       .  S
Eu2494     O2506   2.345       .  S
Eu2494     O2496   2.340       .  S
C2497      C2953   1.472       .  S
C2498      C2969   1.485       .  S
C2499      C2785   1.489       .  S
C2500      C2793   1.493       .  S
C2501      C2753   1.491       .  S
C2502      C2761   1.491       .  S
C2503      C2737   1.478       .  S
C2504      C2697   1.477       .  S
H2505      O2506   0.965       .  S
H2507      O2508   0.966       .  S
O2509      C2520   1.285       .  A
O2509     Eu2545   2.420       .  S
O2510      C2521   1.291       .  A
O2510     Eu2544   2.453       .  S
O2511      C2522   1.295       .  A
O2511     Eu2517   2.473       .  S
O2512      C2523   1.293       .  A
O2512     Eu3717   2.464   1_545  S
O2513      C2523   1.293       .  A
O2513     Eu2547   2.464       .  S
O2514      C2522   1.292       .  A
O2514     Eu2546   2.458       .  S
O2515      C2521   1.295       .  A
O2515     Eu2517   2.476       .  S
O2516      C2520   1.297       .  A
O2516     Eu2517   2.500       .  S
Eu2517     O3712   2.466       .  S
Eu2517     O3727   2.356       .  S
Eu2517     O2519   2.358       .  S
Eu2517     O3718   2.360       .  S
Eu2517     O2525   2.368       .  S
O2518     Eu3717   2.359   1_545  S
O2518     Eu2547   2.352       .  S
O2518     Eu3744   2.350   1_545  S
O2519     Eu2545   2.341       .  S
O2519     Eu2546   2.365       .  S
C2520      C4121   1.484       .  S
C2521      C4113   1.488       .  S
C2522      C2633   1.489       .  S
C2523      C2625   1.486       .  S
H2524      O2525   0.965       .  S
O2525     Eu2546   2.350       .  S
O2525     Eu2544   2.346       .  S
H2526      O2527   0.965       .  S
O2527     Eu3717   2.357   1_545  S
O2527     Eu3745   2.355   1_545  S
O2527     Eu2547   2.368       .  S
O2528      C2551   1.294       .  A
O2528     Eu2544   2.476       .  S
O2529      C2552   1.285       .  A
O2529     Eu2545   2.420       .  S
O2530      C2553   1.290       .  A
O2530     Eu2546   2.454       .  S
O2531      C2554   1.299       .  A
O2531     Eu2547   2.506       .  S
O2532      C2555   1.296       .  A
O2532     Eu2547   2.487       .  S
O2533      C2556   1.286       .  A
O2533     Eu2546   2.423       .  S
O2534      C2557   1.293       .  A
O2534     Eu2548   2.466       .  S
O2535      C2558   1.293       .  A
O2535     Eu3748   2.466       .  S
O2536      C2557   1.294       .  A
O2536     Eu2546   2.477       .  S
O2537      C2558   1.294       .  A
O2537     Eu2547   2.465       .  S
O2538      C2553   1.286       .  A
O2538     Eu2544   2.428       .  S
O2539      C2556   1.295       .  A
O2539     Eu2545   2.479       .  S
O2540      C2555   1.293       .  A
O2540     Eu3745   2.464   1_545  S
O2541      C2554   1.284       .  A
O2541     Eu3744   2.413   1_545  S
O2542      C2551   1.290       .  A
O2542     Eu2548   2.448       .  S
O2543      C2552   1.294       .  A
O2543     Eu2548   2.471       .  S
Eu2544     O3741   2.414       .  S
Eu2544     O3718   2.353       .  S
Eu2544     O3762   2.345       .  S
Eu2544     O2550   2.338       .  S
Eu2545     O3740   2.454       .  S
Eu2545     O3727   2.357       .  S
Eu2545     O3749   2.351       .  S
Eu2545     O2560   2.343       .  S
Eu2546     O2560   2.350       .  S
Eu2546     O2550   2.343       .  S
Eu2547     O2549   2.358       .  S
Eu2547     O2562   2.355       .  S
Eu2548     O3735   2.471       .  S
Eu2548     O3749   2.347       .  S
Eu2548     O2560   2.347       .  S
Eu2548     O3762   2.353       .  S
Eu2548     O2550   2.358       .  S
O2549     Eu3745   2.347   1_545  S
O2549     Eu3748   2.345       .  S
C2551      C4097   1.489       .  S
C2552      C4073   1.478       .  S
C2553      C2729   1.476       .  S
C2554      C2713   1.479       .  S
C2555      C2689   1.493       .  S
C2556      C2705   1.477       .  S
C2557      C2649   1.490       .  S
C2558      C2665   1.490       .  S
H2559      O2560   0.965       .  S
H2561      O2562   0.965       .  S
O2562     Eu3744   2.354   1_545  S
O2562     Eu3748   2.359       .  S
O2563      C2574   1.293       .  A
O2563     Eu2599   2.470       .  S
O2564      C2575   1.288       .  A
O2564     Eu2598   2.434       .  S
O2565      C2576   1.289       .  A
O2565     Eu3171   2.440   1_554  S
O2566      C2577   1.286       .  A
O2566     Eu2571   2.426       .  S
O2567      C2577   1.301       .  A
O2567     Eu2601   2.513       .  S
O2568      C2576   1.298       .  A
O2568     Eu2600   2.501       .  S
O2569      C2575   1.292       .  A
O2569     Eu2571   2.463       .  S
O2570      C2574   1.294       .  A
O2570     Eu2571   2.472       .  S
Eu2571     O3165   2.440       .  S
Eu2571     O2581   2.351       .  S
Eu2571     O3173   2.353       .  S
Eu2571     O2572   2.350       .  S
Eu2571     O3179   2.349       .  S
O2572     Eu2601   2.356       .  S
O2572     Eu2598   2.354       .  S
O2573     Eu3171   2.355   1_554  S
O2573     Eu3199   2.345       .  S
O2573     Eu2600   2.366       .  S
C2574      C3457   1.493       .  S
C2575      C3441   1.480       .  S
C2576      C2769   1.493       .  S
C2577      C2777   1.493       .  S
H2578      O2579   0.966       .  S
O2579     Eu3171   2.355   1_554  S
O2579     Eu2600   2.364       .  S
O2579     Eu3198   2.352   1_554  S
H2580      O2581   0.965       .  S
O2581     Eu2599   2.359       .  S
O2581     Eu2601   2.355       .  S
O2582      C2605   1.289       .  A
O2582     Eu2598   2.445       .  S
O2583      C2606   1.293       .  A
O2583     Eu2599   2.463       .  S
O2584      C2607   1.291       .  A
O2584     Eu2600   2.451       .  S
O2585      C2608   1.293       .  A
O2585     Eu2601   2.460       .  S
O2586      C2609   1.295       .  A
O2586     Eu2601   2.475       .  S
O2587      C2610   1.289       .  A
O2587     Eu2600   2.442       .  S
O2588      C2611   1.281       .  A
O2588     Eu3202   2.396   1_554  S
O2589      C2612   1.290       .  A
O2589     Eu2602   2.443       .  S
O2590      C2611   1.302       .  A
O2590     Eu2600   2.517       .  S
O2591      C2612   1.296       .  A
O2591     Eu2601   2.491       .  S
O2592      C2607   1.296       .  A
O2592     Eu3198   2.479   1_554  S
O2593      C2610   1.297       .  A
O2593     Eu3199   2.490       .  S
O2594      C2609   1.296       .  A
O2594     Eu2599   2.481       .  S
O2595      C2608   1.295       .  A
O2595     Eu2598   2.478       .  S
O2596      C2605   1.289       .  A
O2596     Eu2602   2.449       .  S
O2597      C2606   1.290       .  A
O2597     Eu2602   2.447       .  S
Eu2598     O3192   2.471       .  S
Eu2598     O3179   2.362       .  S
Eu2598     O2616   2.350       .  S
Eu2598     O3204   2.354       .  S
Eu2599     O3193   2.494       .  S
Eu2599     O3173   2.356       .  S
Eu2599     O2603   2.350       .  S
Eu2599     O3214   2.357       .  S
Eu2600     O2614   2.356       .  S
Eu2600     O2604   2.350       .  S
Eu2601     O2603   2.357       .  S
Eu2601     O2616   2.375       .  S
Eu2602     O3188   2.454       .  S
Eu2602     O2603   2.348       .  S
Eu2602     O3214   2.347       .  S
Eu2602     O2616   2.353       .  S
Eu2602     O3204   2.342       .  S
O2604     Eu3198   2.344   1_554  S
O2604     Eu3202   2.347   1_554  S
C2605      C3417   1.477       .  S
C2606      C3425   1.485       .  S
C2607      C2641   1.490       .  S
C2608      C2657   1.488       .  S
C2609      C2673   1.497       .  S
C2610      C2617   1.487       .  S
C2611      C2745   1.487       .  S
C2612      C2801   1.492       .  S
H2613      O2614   0.965       .  S
O2614     Eu3199   2.353       .  S
O2614     Eu3202   2.357   1_554  S
H2615      O2616   0.965       .  S
C2617      C2618   1.410       .  A
C2617      C2622   1.406       .  A
C2618      C2619   1.398       .  A
C2618      H2627   1.083       .  S
C2619      C2620   1.402       .  A
C2619      H2628   1.084       .  S
C2620      C2626   1.406       .  A
C2620      C2621   1.413       .  A
C2621      C2623   1.401       .  A
C2621      C2622   1.406       .  A
C2622      H2629   1.084       .  S
C2623      C2624   1.398       .  A
C2623      H2630   1.084       .  S
C2624      C2625   1.407       .  A
C2624      H2631   1.083       .  S
C2625      C2626   1.408       .  A
C2626      H2632   1.084       .  S
C2633      C2634   1.409       .  A
C2633      C2638   1.408       .  A
C2634      C2635   1.400       .  A
C2634      H2643   1.083       .  S
C2635      C2636   1.403       .  A
C2635      H2644   1.084       .  S
C2636      C2642   1.407       .  A
C2636      C2637   1.412       .  A
C2637      C2639   1.402       .  A
C2637      C2638   1.405       .  A
C2638      H2645   1.084       .  S
C2639      C2640   1.398       .  A
C2639      H2646   1.084       .  S
C2640      C2641   1.407       .  A
C2640      H2647   1.083       .  S
C2641      C2642   1.412       .  A
C2642      H2648   1.084       .  S
C2649      C2650   1.408       .  A
C2649      C2654   1.409       .  A
C2650      C2651   1.400       .  A
C2650      H2659   1.083       .  S
C2651      C2652   1.402       .  A
C2651      H2660   1.084       .  S
C2652      C2658   1.408       .  A
C2652      C2653   1.413       .  A
C2653      C2655   1.403       .  A
C2653      C2654   1.408       .  A
C2654      H2661   1.084       .  S
C2655      C2656   1.399       .  A
C2655      H2662   1.084       .  S
C2656      C2657   1.408       .  A
C2656      H2663   1.083       .  S
C2657      C2658   1.409       .  A
C2658      H2664   1.084       .  S
C2665      C2666   1.407       .  A
C2665      C2670   1.411       .  A
C2666      C2667   1.399       .  A
C2666      H2675   1.083       .  S
C2667      C2668   1.403       .  A
C2667      H2676   1.083       .  S
C2668      C2674   1.409       .  A
C2668      C2669   1.412       .  A
C2669      C2671   1.404       .  A
C2669      C2670   1.409       .  A
C2670      H2677   1.084       .  S
C2671      C2672   1.402       .  A
C2671      H2678   1.084       .  S
C2672      C2673   1.409       .  A
C2672      H2679   1.083       .  S
C2673      C2674   1.412       .  A
C2674      H2680   1.084       .  S
C2681      C2682   1.408       .  A
C2681      C2686   1.406       .  A
C2682      C2683   1.402       .  A
C2682      H2691   1.083       .  S
C2683      C2684   1.404       .  A
C2683      H2692   1.084       .  S
C2684      C2690   1.411       .  A
C2684      C2685   1.414       .  A
C2685      C2687   1.401       .  A
C2685      C2686   1.406       .  A
C2686      H2693   1.084       .  S
C2687      C2688   1.398       .  A
C2687      H2694   1.084       .  S
C2688      C2689   1.408       .  A
C2688      H2695   1.083       .  S
C2689      C2690   1.411       .  A
C2690      H2696   1.084       .  S
C2697      C2698   1.406       .  A
C2697      C2702   1.405       .  A
C2698      C2699   1.396       .  A
C2698      H2707   1.083       .  S
C2699      C2700   1.400       .  A
C2699      H2708   1.084       .  S
C2700      C2706   1.402       .  A
C2700      C2701   1.415       .  A
C2701      C2703   1.400       .  A
C2701      C2702   1.402       .  A
C2702      H2709   1.084       .  S
C2703      C2704   1.395       .  A
C2703      H2710   1.084       .  S
C2704      C2705   1.409       .  A
C2704      H2711   1.083       .  S
C2705      C2706   1.403       .  A
C2706      H2712   1.084       .  S
C2713      C2714   1.408       .  A
C2713      C2718   1.403       .  A
C2714      C2715   1.396       .  A
C2714      H2723   1.084       .  S
C2715      C2716   1.400       .  A
C2715      H2724   1.084       .  S
C2716      C2722   1.409       .  A
C2716      C2717   1.418       .  A
C2717      C2719   1.400       .  A
C2717      C2718   1.410       .  A
C2718      H2725   1.084       .  S
C2719      C2720   1.398       .  A
C2719      H2726   1.084       .  S
C2720      C2721   1.410       .  A
C2720      H2727   1.084       .  S
C2721      C2722   1.403       .  A
C2722      H2728   1.084       .  S
C2729      C2730   1.408       .  A
C2729      C2734   1.405       .  A
C2730      C2731   1.391       .  A
C2730      H2739   1.083       .  S
C2731      C2732   1.397       .  A
C2731      H2740   1.084       .  S
C2732      C2738   1.399       .  A
C2732      C2733   1.415       .  A
C2733      C2735   1.399       .  A
C2733      C2734   1.403       .  A
C2734      H2741   1.084       .  S
C2735      C2736   1.395       .  A
C2735      H2742   1.084       .  S
C2736      C2737   1.410       .  A
C2736      H2743   1.083       .  S
C2737      C2738   1.402       .  A
C2738      H2744   1.084       .  S
C2745      C2746   1.415       .  A
C2745      C2750   1.399       .  A
C2746      C2747   1.397       .  A
C2746      H2755   1.083       .  S
C2747      C2748   1.398       .  A
C2747      H2756   1.084       .  S
C2748      C2754   1.413       .  A
C2748      C2749   1.418       .  A
C2749      C2751   1.392       .  A
C2749      C2750   1.406       .  A
C2750      H2757   1.084       .  S
C2751      C2752   1.389       .  A
C2751      H2758   1.084       .  S
C2752      C2753   1.414       .  A
C2752      H2759   1.082       .  S
C2753      C2754   1.407       .  A
C2754      H2760   1.084       .  S
C2761      C2762   1.412       .  A
C2761      C2766   1.405       .  A
C2762      C2763   1.401       .  A
C2762      H2771   1.083       .  S
C2763      C2764   1.402       .  A
C2763      H2772   1.084       .  S
C2764      C2770   1.412       .  A
C2764      C2765   1.415       .  A
C2765      C2767   1.398       .  A
C2765      C2766   1.406       .  A
C2766      H2773   1.084       .  S
C2767      C2768   1.395       .  A
C2767      H2774   1.084       .  S
C2768      C2769   1.411       .  A
C2768      H2775   1.083       .  S
C2769      C2770   1.410       .  A
C2770      H2776   1.084       .  S
C2777      C2778   1.414       .  A
C2777      C2782   1.403       .  A
C2778      C2779   1.399       .  A
C2778      H2787   1.083       .  S
C2779      C2780   1.399       .  A
C2779      H2788   1.084       .  S
C2780      C2786   1.412       .  A
C2780      C2781   1.417       .  A
C2781      C2783   1.395       .  A
C2781      C2782   1.407       .  A
C2782      H2789   1.084       .  S
C2783      C2784   1.391       .  A
C2783      H2790   1.084       .  S
C2784      C2785   1.414       .  A
C2784      H2791   1.083       .  S
C2785      C2786   1.405       .  A
C2786      H2792   1.084       .  S
C2793      C2794   1.414       .  A
C2793      C2798   1.403       .  A
C2794      C2795   1.402       .  A
C2794      H2803   1.083       .  S
C2795      C2796   1.402       .  A
C2795      H2804   1.084       .  S
C2796      C2802   1.414       .  A
C2796      C2797   1.416       .  A
C2797      C2799   1.396       .  A
C2797      C2798   1.406       .  A
C2798      H2805   1.084       .  S
C2799      C2800   1.392       .  A
C2799      H2806   1.084       .  S
C2800      C2801   1.410       .  A
C2800      H2807   1.083       .  S
C2801      C2802   1.410       .  A
C2802      H2808   1.084       .  S
C2809      C2810   1.406       .  A
C2809      C3414   1.410   1_556  A
C2810      C2811   1.399       .  A
C2810      H2819   1.083       .  S
C2811      C2812   1.403       .  A
C2811      H2820   1.083       .  S
C2812      C2818   1.407       .  A
C2812      C2813   1.413   1_556  A
C2813      C3415   1.403       .  A
C2813      C3414   1.406       .  A
C2814      C3409   1.404       .  A
C2814      C3413   1.398       .  A
C2814      H2821   1.084       .  S
C2815      C3413   1.399       .  A
C2815      C2816   1.393       .  A
C2815      H2822   1.084       .  S
C2816      C3417   1.406       .  A
C2816      H2823   1.083       .  S
C2817      C3205   1.485       .  S
C2817      C3416   1.406   1_556  A
C2817      C2818   1.409       .  A
C2818      H2824   1.084       .  S
C2825      C3206   1.478       .  S
C2825      C3426   1.407       .  A
C2825      C2830   1.405   1_554  A
C2826      C3425   1.407       .  A
C2826      C2827   1.394       .  A
C2826      H2835   1.083       .  S
C2827      C2828   1.399       .  A
C2827      H2836   1.084       .  S
C2828      C2834   1.402       .  A
C2828      C3429   1.413       .  A
C2829      C3428   1.413   1_556  A
C2829      C2831   1.400       .  A
C2829      C2830   1.401       .  A
C2830      H2837   1.084       .  S
C2831      C2832   1.396       .  A
C2831      H2838   1.084       .  S
C2832      C2833   1.407       .  A
C2832      H2839   1.083       .  S
C2833      C3434   1.408   1_556  A
C2834      C3433   1.406       .  A
C2834      H2840   1.084       .  S
C2841      C3175   1.485       .  S
C2841      C3442   1.407       .  A
C2841      C2846   1.410       .  A
C2842      C3441   1.408       .  A
C2842      C2843   1.395       .  A
C2842      H2851   1.083       .  S
C2843      C2844   1.400       .  A
C2843      H2852   1.084       .  S
C2844      C2850   1.399       .  A
C2844      C3445   1.412       .  A
C2845      C3444   1.413       .  A
C2845      C2847   1.402       .  A
C2845      C2846   1.406       .  A
C2846      H2853   1.084       .  S
C2847      C2848   1.398       .  A
C2847      H2854   1.083       .  S
C2848      C2849   1.408       .  A
C2848      H2855   1.083       .  S
C2849      C3450   1.407       .  A
C2850      C3449   1.407       .  A
C2850      H2856   1.084       .  S
C2857      C3174   1.484   1_556  S
C2857      C3458   1.407       .  A
C2857      C2862   1.408   1_556  A
C2858      C3457   1.408       .  A
C2858      C2859   1.400       .  A
C2858      H2867   1.083       .  S
C2859      C2860   1.403       .  A
C2859      H2868   1.084       .  S
C2860      C2866   1.408       .  A
C2860      C3461   1.412       .  A
C2861      C3460   1.413       .  A
C2861      C2863   1.401   1_556  A
C2861      C2862   1.403   1_556  A
C2862      H2869   1.084       .  S
C2863      C2864   1.396       .  A
C2863      H2870   1.084       .  S
C2864      C2865   1.408   1_554  A
C2864      H2871   1.083       .  S
C2865      C3466   1.406       .  A
C2866      C3465   1.410       .  A
C2866      H2872   1.084       .  S
C2873      C3752   1.476       .  S
C2873      C2874   1.410       .  A
C2873      C4078   1.401   1_565  A
C2874      C2875   1.393       .  A
C2874      H2883   1.083       .  S
C2875      C2876   1.399       .  A
C2875      H2884   1.084       .  S
C2876      C2882   1.402       .  A
C2876      C4077   1.415   1_565  A
C2877      C4076   1.414       .  A
C2877      C2879   1.397       .  A
C2877      C2878   1.400       .  A
C2878      C4073   1.402       .  A
C2878      H2885   1.084       .  S
C2879      C2880   1.392       .  A
C2879      H2886   1.084       .  S
C2880      C4081   1.408       .  A
C2880      H2887   1.083       .  S
C2881      C4080   1.408       .  A
C2881      C2882   1.406   1_545  A
C2882      H2888   1.084       .  S
C2889      C2890   1.414       .  A
C2889      C4094   1.404       .  A
C2890      C2891   1.401       .  A
C2890      H2899   1.083       .  S
C2891      C2892   1.402       .  A
C2891      H2900   1.084   1_565  S
C2892      C2898   1.411   1_565  A
C2892      C4093   1.415       .  A
C2893      C4092   1.415       .  A
C2893      C2895   1.398       .  A
C2893      C2894   1.407       .  A
C2894      C4089   1.404       .  A
C2894      H2901   1.084       .  S
C2895      C2896   1.395       .  A
C2895      H2902   1.083       .  S
C2896      C4097   1.409       .  A
C2896      H2903   1.083       .  S
C2897      C3751   1.490       .  S
C2897      C4096   1.409   1_545  A
C2897      C2898   1.410       .  A
C2898      H2904   1.084       .  S
C2905      C2906   1.412   1_565  A
C2905      C4110   1.407       .  A
C2906      C2907   1.400       .  A
C2906      H2915   1.083       .  S
C2907      C2908   1.401   1_545  A
C2907      H2916   1.084       .  S
C2908      C2914   1.413       .  A
C2908      C4109   1.415       .  A
C2909      C4108   1.415       .  A
C2909      C2911   1.400       .  A
C2909      C2910   1.410       .  A
C2910      C4105   1.407       .  A
C2910      H2917   1.084       .  S
C2911      C2912   1.397       .  A
C2911      H2918   1.083       .  S
C2912      C4113   1.409       .  A
C2912      H2919   1.083       .  S
C2913      C3721   1.493       .  S
C2913      C4112   1.409       .  A
C2913      C2914   1.410       .  A
C2914      H2920   1.084   1_565  S
C2921      C3720   1.485       .  S
C2921      C4122   1.409       .  A
C2921      C2926   1.406   1_565  A
C2922      C4121   1.410       .  A
C2922      C2923   1.392       .  A
C2922      H2931   1.083       .  S
C2923      C2924   1.396       .  A
C2923      H2932   1.084       .  S
C2924      C2930   1.405       .  A
C2924      C4125   1.417       .  A
C2925      C4124   1.417   1_545  A
C2925      C2927   1.400       .  A
C2925      C2926   1.411       .  A
C2926      H2933   1.084       .  S
C2927      C2928   1.399       .  A
C2927      H2934   1.084       .  S
C2928      C2929   1.413       .  A
C2928      H2935   1.083       .  S
C2929      C4130   1.401   1_545  A
C2930      C4129   1.400       .  A
C2930      H2936   1.084       .  S
C2937      C2942   1.407       .  A
C2938      C2939   1.398       .  A
C2938      H2947   1.083       .  S
C2939      C2940   1.401       .  A
C2939      H2948   1.084       .  S
C2940      C2946   1.408       .  A
C2941      C2943   1.400       .  A
C2941      C2942   1.407       .  A
C2942      H2949   1.084       .  S
C2943      C2944   1.398       .  A
C2943      H2950   1.084       .  S
C2944      C2945   1.411       .  A
C2944      H2951   1.083       .  S
C2946      H2952   1.084       .  S
C2953      C2954   1.406       .  A
C2954      C2955   1.392       .  A
C2954      H2963   1.083       .  S
C2955      C2956   1.399       .  A
C2955      H2964   1.084       .  S
C2956      C2962   1.397       .  A
C2957      C2959   1.401       .  A
C2957      C2958   1.399       .  A
C2958      H2965   1.084       .  S
C2959      C2960   1.395       .  A
C2959      H2966   1.084       .  S
C2960      H2967   1.083       .  S
C2961      C2962   1.402       .  A
C2962      H2968   1.084       .  S
C2969      C2974   1.404       .  A
C2970      C2971   1.394       .  A
C2970      H2979   1.083       .  S
C2971      C2972   1.397       .  A
C2971      H2980   1.083       .  S
C2972      C2978   1.411       .  A
C2973      C2975   1.397       .  A
C2973      C2974   1.411       .  A
C2974      H2981   1.084       .  S
C2975      C2976   1.396       .  A
C2975      H2982   1.084       .  S
C2976      C2977   1.414       .  A
C2976      H2983   1.083       .  S
C2978      H2984   1.084       .  S
C2985      C2986   1.410       .  A
C2986      C2987   1.398       .  A
C2986      H2995   1.083       .  S
C2987      C2988   1.401       .  A
C2987      H2996   1.083       .  S
C2988      C2994   1.413       .  A
C2989      C2991   1.400       .  A
C2989      C2990   1.411       .  A
C2990      H2997   1.084       .  S
C2991      C2992   1.399       .  A
C2991      H2998   1.084       .  S
C2992      H2999   1.083       .  S
C2993      C2994   1.410       .  A
C2994      H3000   1.084       .  S
O3001      C3012   1.300       .  A
O3001     Eu3037   2.503   1_545  S
O3002      C3013   1.283       .  A
O3002     Eu3036   2.405   1_545  S
O3003      C3014   1.292       .  A
O3003     Eu3009   2.464       .  S
O3004      C3015   1.290       .  A
O3005      C3015   1.292       .  A
O3005     Eu3039   2.460       .  S
O3006      C3014   1.293       .  A
O3006     Eu3038   2.467   1_545  S
O3007      C3013   1.296       .  A
O3008      C3012   1.290       .  A
O3008     Eu3009   2.444       .  S
Eu3009     O3011   2.352       .  S
O3011     Eu3037   2.370   1_545  S
O3011     Eu3038   2.347   1_545  S
C3012      C3593   1.494       .  S
C3013      C3537   1.477       .  S
C3014      C3465   1.492       .  S
C3015      C3433   1.485       .  S
H3016      O3017   0.964       .  S
O3017     Eu3036   2.360   1_545  S
H3018      O3019   0.964       .  S
O3019     Eu3039   2.346       .  S
O3020      C3043   1.294       .  A
O3020     Eu4236   2.472       .  S
O3021      C3044   1.303       .  A
O3021     Eu4237   2.537       .  S
O3022      C3045   1.294       .  A
O3023      C3046   1.286       .  A
O3024      C3047   1.287       .  A
O3024     Eu3039   2.429       .  S
O3025      C3048   1.295       .  A
O3025     Eu3038   2.473       .  S
O3026      C3049   1.291       .  A
O3026     Eu3040   2.460       .  S
O3027      C3050   1.293       .  A
O3028      C3049   1.290       .  A
O3028     Eu4238   2.443       .  S
O3029      C3050   1.288       .  A
O3029     Eu4239   2.437       .  S
O3030      C3045   1.289       .  A
O3030     Eu3036   2.443       .  S
O3031      C3048   1.297       .  A
O3031     Eu3037   2.486       .  S
O3032      C3047   1.298       .  A
O3033      C3046   1.293   1_565  A
O3034      C3043   1.287       .  A
O3035      C3044   1.286       .  A
O3035     Eu3040   2.428       .  S
Eu3036     O4220   2.460       .  S
Eu3036     O4242   2.338       .  S
Eu3037     O4221   2.525       .  S
Eu3037     O4252   2.364       .  S
Eu3038     O4228   2.435       .  S
Eu3038     O4252   2.377       .  S
Eu3038     O3642   2.356       .  S
Eu3039     O4229   2.438   1_545  S
Eu3039     O4241   2.356   1_545  S
Eu3039     O3654   2.349   1_545  S
Eu3040     O3052   2.350       .  S
O3041     Eu4239   2.362       .  S
O3042     Eu4236   2.343       .  S
O3042     Eu3638   2.345       .  S
C3043      C3561   1.477       .  S
C3044      C3577   1.501       .  S
C3045      C3489   1.484       .  S
C3046      C3481   1.477       .  S
C3047      C3529   1.482       .  S
C3048      C3505   1.499       .  S
C3049      C3449   1.481       .  S
C3050      C3409   1.476       .  S
H3051      O3052   0.965       .  S
O3052     Eu4237   2.363       .  S
O3052     Eu4238   2.373       .  S
H3053      O3054   0.965       .  S
O3054     Eu3639   2.339       .  S
O3055      C3066   1.296       .  A
O3055     Eu3091   2.480       .  S
O3056      C3067   1.286       .  A
O3056     Eu3090   2.419       .  S
O3057      C3068   1.292       .  A
O3057     Eu3063   2.472       .  S
O3058      C3069   1.291       .  A
O3059      C3069   1.292       .  A
O3059     Eu3093   2.460       .  S
O3060      C3068   1.286       .  A
O3060     Eu3092   2.439       .  S
O3061      C3067   1.299       .  A
O3061     Eu3063   2.503       .  S
O3062      C3066   1.295       .  A
O3062     Eu3063   2.474       .  S
Eu3063     O3065   2.360       .  S
Eu3063     O3071   2.344       .  S
O3064     Eu3093   2.341       .  S
O3065     Eu3091   2.372       .  S
O3065     Eu3092   2.338       .  S
C3066      C3585   1.496       .  S
C3067      C3545   1.486       .  S
C3068      C3321   1.466       .  S
C3069      C3281   1.485       .  S
H3070      O3071   0.967       .  S
O3071     Eu3092   2.343       .  S
O3071     Eu3090   2.360       .  S
H3072      O3073   0.967       .  S
O3073     Eu3093   2.355       .  S
O3074      C3097   1.294       .  A
O3074     Eu3090   2.477       .  S
O3075      C3098   1.300       .  A
O3075     Eu3091   2.508       .  S
O3076      C3099   1.284       .  A
O3076     Eu3092   2.415       .  S
O3077      C3100   1.289       .  A
O3077     Eu3093   2.441       .  S
O3078      C3101   1.287       .  A
O3078     Eu3093   2.425       .  S
O3079      C3102   1.288       .  A
O3079     Eu3092   2.442       .  S
O3080      C3103   1.290       .  A
O3080     Eu3094   2.450       .  S
O3081      C3104   1.290       .  A
O3082      C3103   1.288       .  A
O3082     Eu3092   2.441       .  S
O3083      C3104   1.292       .  A
O3083     Eu3093   2.459       .  S
O3084      C3099   1.297       .  A
O3084     Eu3090   2.491       .  S
O3085      C3102   1.296       .  A
O3085     Eu3091   2.488       .  S
O3086      C3101   1.298       .  A
O3087      C3100   1.297       .  A
O3088      C3097   1.289       .  A
O3088     Eu3094   2.442       .  S
O3089      C3098   1.287       .  A
O3089     Eu3094   2.425       .  S
Eu3090     O3096   2.354       .  S
Eu3091     O3106   2.356       .  S
Eu3092     O3106   2.346       .  S
Eu3092     O3096   2.354       .  S
Eu3093     O3095   2.344       .  S
Eu3093     O3108   2.355       .  S
Eu3094     O3106   2.353       .  S
Eu3094     O3096   2.341       .  S
C3097      C3553   1.481       .  S
C3098      C3569   1.489       .  S
C3099      C3385   1.473       .  S
C3100      C3393   1.493       .  S
C3101      C3353   1.489       .  S
C3102      C3361   1.482       .  S
C3103      C3337   1.477       .  S
C3104      C3297   1.485       .  S
H3105      O3106   0.965       .  S
H3107      O3108   0.966       .  S
O3109      C3120   1.285       .  A
O3109     Eu3145   2.422       .  S
O3110      C3121   1.295       .  A
O3110     Eu3144   2.473       .  S
O3111      C3122   1.293       .  A
O3111     Eu3117   2.459       .  S
O3112      C3123   1.294       .  A
O3112     Eu4317   2.466   1_545  S
O3113      C3123   1.294       .  A
O3113     Eu3147   2.472       .  S
O3114      C3122   1.292       .  A
O3114     Eu3146   2.456       .  S
O3115      C3121   1.298       .  A
O3115     Eu3117   2.493       .  S
O3116      C3120   1.301       .  A
O3116     Eu3117   2.520       .  S
Eu3117     O4312   2.478       .  S
Eu3117     O4327   2.350       .  S
Eu3117     O3119   2.358       .  S
Eu3117     O4318   2.357       .  S
Eu3117     O3125   2.374       .  S
O3118     Eu4317   2.359   1_545  S
O3118     Eu3147   2.349       .  S
O3118     Eu4344   2.354   1_545  S
O3119     Eu3145   2.338       .  S
O3119     Eu3146   2.364       .  S
C3120      C4721   1.489       .  S
C3121      C4713   1.502       .  S
C3122      C3233   1.483       .  S
C3123      C3225   1.494       .  S
H3124      O3125   0.965       .  S
O3125     Eu3146   2.355       .  S
O3125     Eu3144   2.347       .  S
H3126      O3127   0.965       .  S
O3127     Eu4317   2.346   1_545  S
O3127     Eu4345   2.350   1_545  S
O3127     Eu3147   2.360       .  S
O3128      C3151   1.297       .  A
O3128     Eu3144   2.498       .  S
O3129      C3152   1.282       .  A
O3129     Eu3145   2.403       .  S
O3130      C3153   1.292       .  A
O3130     Eu3146   2.465       .  S
O3131      C3154   1.294       .  A
O3131     Eu3147   2.479       .  S
O3132      C3155   1.295       .  A
O3132     Eu3147   2.476       .  S
O3133      C3156   1.289       .  A
O3133     Eu3146   2.438       .  S
O3134      C3157   1.289       .  A
O3134     Eu3148   2.445       .  S
O3135      C3158   1.291       .  A
O3135     Eu4348   2.451       .  S
O3136      C3157   1.295       .  A
O3136     Eu3146   2.477       .  S
O3137      C3158   1.293       .  A
O3137     Eu3147   2.463       .  S
O3138      C3153   1.288       .  A
O3138     Eu3144   2.438       .  S
O3139      C3156   1.295       .  A
O3139     Eu3145   2.484       .  S
O3140      C3155   1.291       .  A
O3140     Eu4345   2.456   1_545  S
O3141      C3154   1.286       .  A
O3141     Eu4344   2.432   1_545  S
O3142      C3151   1.290       .  A
O3142     Eu3148   2.449       .  S
O3143      C3152   1.294       .  A
O3143     Eu3148   2.469       .  S
Eu3144     O4341   2.418       .  S
Eu3144     O4318   2.356       .  S
Eu3144     O4362   2.349       .  S
Eu3144     O3150   2.341       .  S
Eu3145     O4340   2.448       .  S
Eu3145     O4327   2.356       .  S
Eu3145     O4349   2.361       .  S
Eu3145     O3160   2.349       .  S
Eu3146     O3160   2.352       .  S
Eu3146     O3150   2.343       .  S
Eu3147     O3149   2.362       .  S
Eu3147     O3162   2.361       .  S
Eu3148     O4335   2.451       .  S
Eu3148     O4349   2.353       .  S
Eu3148     O3160   2.348       .  S
Eu3148     O4362   2.351       .  S
Eu3148     O3150   2.357       .  S
O3149     Eu4345   2.359   1_545  S
O3149     Eu4348   2.352       .  S
C3151      C4697   1.493       .  S
C3152      C4673   1.471       .  S
C3153      C3329   1.479       .  S
C3154      C3313   1.465       .  S
C3155      C3289   1.489       .  S
C3156      C3305   1.488       .  S
C3157      C3249   1.485       .  S
C3158      C3265   1.483       .  S
H3159      O3160   0.965       .  S
H3161      O3162   0.966       .  S
O3162     Eu4344   2.343   1_545  S
O3162     Eu4348   2.357       .  S
O3163      C3174   1.291       .  A
O3163     Eu3199   2.455       .  S
O3164      C3175   1.292       .  A
O3164     Eu3198   2.462       .  S
O3165      C3176   1.289       .  A
O3166      C3177   1.289       .  A
O3166     Eu3171   2.445       .  S
O3167      C3177   1.292       .  A
O3167     Eu3201   2.465       .  S
O3168      C3176   1.296       .  A
O3168     Eu3200   2.491       .  S
O3169      C3175   1.290       .  A
O3169     Eu3171   2.451       .  S
O3170      C3174   1.291   1_556  A
O3170     Eu3171   2.458       .  S
Eu3171     O3181   2.348       .  S
Eu3171     O3172   2.344       .  S
O3172     Eu3201   2.360       .  S
O3172     Eu3198   2.347       .  S
O3173     Eu3200   2.363       .  S
C3176      C3369   1.481       .  S
C3177      C3377   1.476       .  S
H3178      O3179   0.965       .  S
O3179     Eu3200   2.368       .  S
H3180      O3181   0.965       .  S
O3181     Eu3199   2.358   1_556  S
O3181     Eu3201   2.365       .  S
O3182      C3205   1.291       .  A
O3182     Eu3198   2.452       .  S
O3183      C3206   1.288       .  A
O3183     Eu3199   2.435       .  S
O3184      C3207   1.291       .  A
O3184     Eu3200   2.449       .  S
O3185      C3208   1.292       .  A
O3185     Eu3201   2.456       .  S
O3186      C3209   1.292       .  A
O3186     Eu3201   2.454       .  S
O3187      C3210   1.291       .  A
O3187     Eu3200   2.450       .  S
O3188      C3211   1.291       .  A
O3189      C3212   1.288       .  A
O3189     Eu3202   2.441       .  S
O3190      C3211   1.298       .  A
O3190     Eu3200   2.501       .  S
O3191      C3212   1.297       .  A
O3191     Eu3201   2.500       .  S
O3192      C3207   1.294       .  A
O3193      C3210   1.298       .  A
O3194      C3209   1.292       .  A
O3194     Eu3199   2.460   1_556  S
O3195      C3208   1.293       .  A
O3195     Eu3198   2.464       .  S
O3196      C3205   1.294       .  A
O3196     Eu3202   2.471       .  S
O3197      C3206   1.292   1_556  A
O3197     Eu3202   2.458       .  S
Eu3198     O3216   2.371       .  S
Eu3199     O3203   2.357   1_554  S
Eu3200     O3214   2.357       .  S
Eu3200     O3204   2.358       .  S
Eu3201     O3203   2.342       .  S
Eu3201     O3216   2.355       .  S
Eu3202     O3203   2.331       .  S
Eu3202     O3216   2.340       .  S
C3207      C3241   1.484       .  S
C3208      C3257   1.484       .  S
C3209      C3273   1.483       .  S
C3210      C3217   1.494       .  S
C3211      C3345   1.497       .  S
C3212      C3401   1.492       .  S
H3213      O3214   0.965       .  S
H3215      O3216   0.966       .  S
C3217      C3218   1.411       .  A
C3217      C3222   1.409       .  A
C3218      C3219   1.400       .  A
C3218      H3227   1.083       .  S
C3219      C3220   1.402       .  A
C3219      H3228   1.084       .  S
C3220      C3226   1.410       .  A
C3220      C3221   1.413       .  A
C3221      C3223   1.401       .  A
C3221      C3222   1.408       .  A
C3222      H3229   1.084       .  S
C3223      C3224   1.399       .  A
C3223      H3230   1.084       .  S
C3224      C3225   1.409       .  A
C3224      H3231   1.083       .  S
C3225      C3226   1.411       .  A
C3226      H3232   1.084       .  S
C3233      C3234   1.407       .  A
C3233      C3238   1.409       .  A
C3234      C3235   1.396       .  A
C3234      H3243   1.083       .  S
C3235      C3236   1.401       .  A
C3235      H3244   1.084       .  S
C3236      C3242   1.401       .  A
C3236      C3237   1.412       .  A
C3237      C3239   1.403       .  A
C3237      C3238   1.404       .  A
C3238      H3245   1.084       .  S
C3239      C3240   1.399       .  A
C3239      H3246   1.084       .  S
C3240      C3241   1.407       .  A
C3240      H3247   1.083       .  S
C3241      C3242   1.408       .  A
C3242      H3248   1.084       .  S
C3249      C3250   1.409       .  A
C3249      C3254   1.406       .  A
C3250      C3251   1.398       .  A
C3250      H3259   1.083       .  S
C3251      C3252   1.401       .  A
C3251      H3260   1.084       .  S
C3252      C3258   1.405       .  A
C3252      C3253   1.413       .  A
C3253      C3255   1.400       .  A
C3253      C3254   1.404       .  A
C3254      H3261   1.084       .  S
C3255      C3256   1.396       .  A
C3255      H3262   1.084       .  S
C3256      C3257   1.408       .  A
C3256      H3263   1.083       .  S
C3257      C3258   1.408       .  A
C3258      H3264   1.084       .  S
C3265      C3266   1.407       .  A
C3265      C3270   1.409       .  A
C3266      C3267   1.395       .  A
C3266      H3275   1.083       .  S
C3267      C3268   1.400       .  A
C3267      H3276   1.084       .  S
C3268      C3274   1.401       .  A
C3268      C3269   1.412       .  A
C3269      C3271   1.402       .  A
C3269      C3270   1.404       .  A
C3270      H3277   1.084       .  S
C3271      C3272   1.398       .  A
C3271      H3278   1.084       .  S
C3272      C3273   1.407       .  A
C3272      H3279   1.083       .  S
C3273      C3274   1.407       .  A
C3274      H3280   1.084       .  S
C3281      C3282   1.407       .  A
C3281      C3286   1.408       .  A
C3282      C3283   1.398       .  A
C3282      H3291   1.083       .  S
C3283      C3284   1.402       .  A
C3283      H3292   1.084       .  S
C3284      C3290   1.405       .  A
C3284      C3285   1.413       .  A
C3285      C3287   1.401       .  A
C3285      C3286   1.404       .  A
C3286      H3293   1.084       .  S
C3287      C3288   1.398       .  A
C3287      H3294   1.084       .  S
C3288      C3289   1.409       .  A
C3288      H3295   1.083       .  S
C3289      C3290   1.408       .  A
C3290      H3296   1.084       .  S
C3297      C3298   1.408       .  A
C3297      C3302   1.406       .  A
C3298      C3299   1.399       .  A
C3298      H3307   1.083       .  S
C3299      C3300   1.402       .  A
C3299      H3308   1.083       .  S
C3300      C3306   1.409       .  A
C3300      C3301   1.414       .  A
C3301      C3303   1.397       .  A
C3301      C3302   1.403       .  A
C3302      H3309   1.084       .  S
C3303      C3304   1.393       .  A
C3303      H3310   1.084       .  S
C3304      C3305   1.410       .  A
C3304      H3311   1.083       .  S
C3305      C3306   1.409       .  A
C3306      H3312   1.084       .  S
C3313      C3314   1.403       .  A
C3313      C3318   1.403       .  A
C3314      C3315   1.394       .  A
C3314      H3323   1.084       .  S
C3315      C3316   1.399       .  A
C3315      H3324   1.084       .  S
C3316      C3322   1.403       .  A
C3316      C3317   1.418       .  A
C3317      C3319   1.402       .  A
C3317      C3318   1.407       .  A
C3318      H3325   1.085       .  S
C3319      C3320   1.398       .  A
C3319      H3326   1.084       .  S
C3320      C3321   1.405       .  A
C3320      H3327   1.083       .  S
C3321      C3322   1.398       .  A
C3322      H3328   1.085       .  S
C3329      C3330   1.408       .  A
C3329      C3334   1.407       .  A
C3330      C3331   1.390       .  A
C3330      H3339   1.083       .  S
C3331      C3332   1.397       .  A
C3331      H3340   1.084       .  S
C3332      C3338   1.397       .  A
C3332      C3333   1.414       .  A
C3333      C3335   1.402       .  A
C3333      C3334   1.405       .  A
C3334      H3341   1.084       .  S
C3335      C3336   1.398       .  A
C3335      H3342   1.084       .  S
C3336      C3337   1.407       .  A
C3336      H3343   1.083       .  S
C3337      C3338   1.403       .  A
C3338      H3344   1.084       .  S
C3345      C3346   1.411       .  A
C3345      C3350   1.409       .  A
C3346      C3347   1.399       .  A
C3346      H3355   1.083       .  S
C3347      C3348   1.399       .  A
C3347      H3356   1.084       .  S
C3348      C3354   1.411       .  A
C3348      C3349   1.416       .  A
C3349      C3351   1.400       .  A
C3349      C3350   1.412       .  A
C3350      H3357   1.084       .  S
C3351      C3352   1.397       .  A
C3351      H3358   1.084       .  S
C3352      C3353   1.411       .  A
C3352      H3359   1.083       .  S
C3353      C3354   1.406       .  A
C3354      H3360   1.084       .  S
C3361      C3362   1.408       .  A
C3361      C3366   1.402       .  A
C3362      C3363   1.401       .  A
C3362      H3371   1.083       .  S
C3363      C3364   1.403       .  A
C3363      H3372   1.084       .  S
C3364      C3370   1.412       .  A
C3364      C3365   1.416       .  A
C3365      C3367   1.398       .  A
C3365      C3366   1.405       .  A
C3366      H3373   1.084       .  S
C3367      C3368   1.394       .  A
C3367      H3374   1.084       .  S
C3368      C3369   1.406       .  A
C3368      H3375   1.083       .  S
C3369      C3370   1.408       .  A
C3370      H3376   1.084       .  S
C3377      C3378   1.407       .  A
C3377      C3382   1.404       .  A
C3378      C3379   1.394       .  A
C3378      H3387   1.083       .  S
C3379      C3380   1.398       .  A
C3379      H3388   1.084       .  S
C3380      C3386   1.403       .  A
C3380      C3381   1.417       .  A
C3381      C3383   1.399       .  A
C3381      C3382   1.404       .  A
C3382      H3389   1.084       .  S
C3383      C3384   1.395       .  A
C3383      H3390   1.084       .  S
C3384      C3385   1.409       .  A
C3384      H3391   1.083       .  S
C3385      C3386   1.400       .  A
C3386      H3392   1.084       .  S
C3393      C3394   1.410       .  A
C3393      C3398   1.409       .  A
C3394      C3395   1.397       .  A
C3394      H3403   1.083       .  S
C3395      C3396   1.399       .  A
C3395      H3404   1.084       .  S
C3396      C3402   1.411       .  A
C3396      C3397   1.416       .  A
C3397      C3399   1.401       .  A
C3397      C3398   1.414       .  A
C3398      H3405   1.084       .  S
C3399      C3400   1.400       .  A
C3399      H3406   1.084       .  S
C3400      C3401   1.411       .  A
C3400      H3407   1.083       .  S
C3401      C3402   1.406       .  A
C3402      H3408   1.084       .  S
C3409      C3410   1.408       .  A
C3410      C3411   1.396       .  A
C3410      H3419   1.083       .  S
C3411      C3412   1.401       .  A
C3411      H3420   1.084       .  S
C3412      C3418   1.400       .  A
C3412      C3413   1.413       .  A
C3414      H3421   1.084       .  S
C3415      C3416   1.398       .  A
C3415      H3422   1.084       .  S
C3416      H3423   1.083       .  S
C3417      C3418   1.406       .  A
C3418      H3424   1.084       .  S
C3425      C3430   1.410       .  A
C3426      C3427   1.396       .  A
C3426      H3435   1.083       .  S
C3427      C3428   1.402       .  A
C3427      H3436   1.084       .  S
C3428      C3434   1.403       .  A
C3429      C3431   1.403       .  A
C3429      C3430   1.407       .  A
C3430      H3437   1.084       .  S
C3431      C3432   1.399       .  A
C3431      H3438   1.084       .  S
C3432      C3433   1.409       .  A
C3432      H3439   1.083       .  S
C3434      H3440   1.084       .  S
C3441      C3446   1.407       .  A
C3442      C3443   1.395       .  A
C3442      H3451   1.083   1_556  S
C3443      C3444   1.400       .  A
C3443      H3452   1.084       .  S
C3444      C3450   1.403       .  A
C3445      C3447   1.402       .  A
C3445      C3446   1.401       .  A
C3446      H3453   1.084       .  S
C3447      C3448   1.397       .  A
C3447      H3454   1.084       .  S
C3448      C3449   1.407       .  A
C3448      H3455   1.083       .  S
C3450      H3456   1.084       .  S
C3457      C3462   1.411       .  A
C3458      C3459   1.396       .  A
C3458      H3467   1.083       .  S
C3459      C3460   1.401       .  A
C3459      H3468   1.084       .  S
C3460      C3466   1.403       .  A
C3461      C3463   1.404       .  A
C3461      C3462   1.409       .  A
C3462      H3469   1.084       .  S
C3463      C3464   1.401       .  A
C3463      H3470   1.084       .  S
C3464      C3465   1.408       .  A
C3464      H3471   1.083       .  S
C3466      H3472   1.084       .  S
C3473      C4352   1.472       .  S
C3473      C3474   1.410       .  A
C3473      C4678   1.400   1_545  A
C3474      C3475   1.393       .  A
C3474      H3483   1.083       .  S
C3475      C3476   1.399       .  A
C3475      H3484   1.084       .  S
C3476      C3482   1.402       .  A
C3476      C4677   1.415   1_545  A
C3477      C4676   1.416       .  A
C3477      C3479   1.395       .  A
C3477      C3478   1.396       .  A
C3478      C4673   1.399       .  A
C3478      H3485   1.084       .  S
C3479      C3480   1.389       .  A
C3479      H3486   1.084       .  S
C3480      C4681   1.409       .  A
C3480      H3487   1.083       .  S
C3481      C4680   1.409   1_545  A
C3481      C3482   1.404       .  A
C3482      H3488   1.084       .  S
C3489      C3490   1.407       .  A
C3489      C4694   1.407       .  A
C3490      C3491   1.397       .  A
C3490      H3499   1.083       .  S
C3491      C3492   1.401       .  A
C3491      H3500   1.084       .  S
C3492      C3498   1.409       .  A
C3492      C4693   1.415   1_565  A
C3493      C4692   1.415       .  A
C3493      C3495   1.400       .  A
C3493      C3494   1.409       .  A
C3494      C4689   1.406       .  A
C3494      H3501   1.084       .  S
C3495      C3496   1.399       .  A
C3495      H3502   1.084       .  S
C3496      C4697   1.411       .  A
C3496      H3503   1.083       .  S
C3497      C4351   1.490       .  S
C3497      C4696   1.410       .  A
C3497      C3498   1.407   1_545  A
C3498      H3504   1.084       .  S
C3505      C3506   1.411       .  A
C3505      C4710   1.410       .  A
C3506      C3507   1.402       .  A
C3506      H3515   1.083       .  S
C3507      C3508   1.403       .  A
C3507      H3516   1.084       .  S
C3508      C3514   1.414       .  A
C3508      C4709   1.414       .  A
C3509      C4708   1.414       .  A
C3509      C3511   1.402       .  A
C3509      C3510   1.414       .  A
C3510      C4705   1.411       .  A
C3510      H3517   1.084       .  S
C3511      C3512   1.401       .  A
C3511      H3518   1.084       .  S
C3512      C4713   1.411       .  A
C3512      H3519   1.083       .  S
C3513      C4321   1.499       .  S
C3513      C4712   1.410   1_565  A
C3513      C3514   1.412       .  A
C3514      H3520   1.084       .  S
C3521      C4320   1.489       .  S
C3521      C4722   1.410       .  A
C3521      C3526   1.406   1_565  A
C3522      C4721   1.410       .  A
C3522      C3523   1.397       .  A
C3522      H3531   1.083       .  S
C3523      C3524   1.399       .  A
C3523      H3532   1.084       .  S
C3524      C3530   1.411       .  A
C3524      C4725   1.418       .  A
C3525      C4724   1.418   1_545  A
C3525      C3527   1.400       .  A
C3525      C3526   1.413       .  A
C3526      H3533   1.084       .  S
C3527      C3528   1.397       .  A
C3527      H3534   1.083       .  S
C3528      C3529   1.409       .  A
C3528      H3535   1.084       .  S
C3529      C4730   1.404   1_545  A
C3530      C4729   1.404       .  A
C3530      H3536   1.084       .  S
C3537      C3542   1.401       .  A
C3538      C3539   1.392       .  A
C3538      H3547   1.083       .  S
C3539      C3540   1.397   1_455  A
C3539      H3548   1.084       .  S
C3540      C3546   1.405       .  A
C3541      C3543   1.395       .  A
C3541      C3542   1.403       .  A
C3542      H3549   1.084       .  S
C3543      C3544   1.392       .  A
C3543      H3550   1.084       .  S
C3544      C3545   1.412       .  A
C3544      H3551   1.083       .  S
C3546      H3552   1.084       .  S
C3553      C3554   1.407       .  A
C3554      C3555   1.396       .  A
C3554      H3563   1.083       .  S
C3555      C3556   1.400       .  A
C3555      H3564   1.084       .  S
C3556      C3562   1.404       .  A
C3557      C3559   1.401       .  A
C3557      C3558   1.405       .  A
C3558      H3565   1.084       .  S
C3559      C3560   1.397       .  A
C3559      H3566   1.084       .  S
C3560      H3567   1.083       .  S
C3561      C3562   1.403       .  A
C3562      H3568   1.084       .  S
C3569      C3574   1.405       .  A
C3570      C3571   1.398       .  A
C3570      H3579   1.083       .  S
C3571      C3572   1.400       .  A
C3571      H3580   1.083       .  S
C3572      C3578   1.416       .  A
C3573      C3575   1.397       .  A
C3573      C3574   1.412       .  A
C3574      H3581   1.084       .  S
C3575      C3576   1.397       .  A
C3575      H3582   1.084       .  S
C3576      C3577   1.414       .  A
C3576      H3583   1.083       .  S
C3578      H3584   1.084       .  S
C3585      C3586   1.409       .  A
C3586      C3587   1.397       .  A
C3586      H3595   1.083       .  S
C3587      C3588   1.399       .  A
C3587      H3596   1.084       .  S
C3588      C3594   1.409       .  A
C3589      C3591   1.402       .  A
C3589      C3590   1.413       .  A
C3590      H3597   1.084       .  S
C3591      C3592   1.401       .  A
C3591      H3598   1.084       .  S
C3592      H3599   1.083       .  S
C3593      C3594   1.407       .  A
C3594      H3600   1.084       .  S
O3601      C3612   1.299       .  A
O3601     Eu3637   2.497       .  S
O3602      C3613   1.289       .  A
O3602     Eu3636   2.443       .  S
O3603      C3614   1.291       .  A
O3603     Eu3609   2.453       .  S
O3604      C3615   1.290       .  A
O3605      C3615   1.293       .  A
O3605     Eu3639   2.469       .  S
O3606      C3614   1.289       .  A
O3606     Eu3638   2.445       .  S
O3607      C3613   1.297       .  A
O3607     Eu4209   2.491       .  S
O3608      C3612   1.292       .  A
O3608     Eu3609   2.458   1_554  S
Eu3609     O4207   2.485       .  S
Eu3609     O3611   2.350   1_556  S
Eu3609     O4217   2.349       .  S
O3610     Eu4239   2.335       .  S
O3611     Eu3637   2.371       .  S
O3611     Eu3638   2.352   1_554  S
C3612      C4193   1.496       .  S
C3613      C4137   1.492       .  S
C3614      C4065   1.479       .  S
C3615      C4033   1.484       .  S
H3616      O3617   0.964       .  S
O3617     Eu4209   2.342       .  S
O3617     Eu4238   2.352       .  S
O3617     Eu3636   2.366       .  S
H3618      O3619   0.965       .  S
O3619     Eu3639   2.357   1_554  S
O3620      C3643   1.293       .  A
O3621      C3644   1.302       .  A
O3622      C3645   1.301       .  A
O3622     Eu4238   2.511       .  S
O3623      C3646   1.291       .  A
O3623     Eu4239   2.456       .  S
O3624      C3647   1.282       .  A
O3624     Eu3639   2.397   1_554  S
O3625      C3648   1.291       .  A
O3625     Eu3638   2.450   1_554  S
O3626      C3649   1.290       .  A
O3626     Eu3640   2.450       .  S
O3627      C3650   1.288   1_554  A
O3628      C3649   1.290       .  A
O3629      C3650   1.292       .  A
O3630      C3645   1.286       .  A
O3630     Eu3636   2.425       .  S
O3631      C3648   1.298       .  A
O3631     Eu3637   2.495       .  S
O3632      C3647   1.304       .  A
O3633      C3646   1.290       .  A
O3634      C3643   1.286       .  A
O3634     Eu4240   2.426       .  S
O3635      C3644   1.283       .  A
O3635     Eu3640   2.408   1_554  S
Eu3638     O4222   2.479       .  S
Eu3638     O4217   2.347       .  S
Eu3639     O4223   2.417       .  S
Eu3639     O4210   2.334       .  S
Eu3640     O4234   2.428       .  S
Eu3640     O3652   2.349   1_556  S
Eu3640     O4242   2.336       .  S
O3642     Eu4240   2.351       .  S
C3643      C4161   1.474       .  S
C3644      C4177   1.489       .  S
C3645      C4089   1.491       .  S
C3646      C4081   1.484       .  S
C3647      C4129   1.485       .  S
C3648      C4105   1.492       .  S
C3649      C4049   1.481       .  S
C3650      C4009   1.478       .  S
H3651      O3652   0.964       .  S
H3653      O3654   0.966       .  S
O3655      C3666   1.299       .  A
O3655     Eu3691   2.491       .  S
O3656      C3667   1.291       .  A
O3656     Eu3690   2.445       .  S
O3657      C3668   1.298       .  A
O3657     Eu3663   2.506       .  S
O3658      C3669   1.295       .  A
O3659      C3669   1.289       .  A
O3659     Eu3693   2.439       .  S
O3660      C3668   1.286       .  A
O3660     Eu3692   2.430       .  S
O3661      C3667   1.298       .  A
O3661     Eu3663   2.497       .  S
O3662      C3666   1.291       .  A
O3662     Eu3663   2.448       .  S
Eu3663     O3665   2.366       .  S
Eu3663     O3671   2.336       .  S
O3664     Eu3693   2.346       .  S
O3665     Eu3691   2.379       .  S
O3665     Eu3692   2.346       .  S
C3666      C4185   1.492       .  S
C3667      C4145   1.493       .  S
C3668      C3921   1.482       .  S
C3669      C3881   1.483       .  S
H3670      O3671   0.967       .  S
O3671     Eu3692   2.338       .  S
O3671     Eu3690   2.356       .  S
H3672      O3673   0.967       .  S
O3673     Eu3693   2.355       .  S
O3674      C3697   1.292       .  A
O3674     Eu3690   2.456       .  S
O3675      C3698   1.299       .  A
O3675     Eu3691   2.503       .  S
O3676      C3699   1.288       .  A
O3676     Eu3692   2.435       .  S
O3677      C3700   1.287       .  A
O3677     Eu3693   2.431       .  S
O3678      C3701   1.284       .  A
O3678     Eu3693   2.417       .  S
O3679      C3702   1.289       .  A
O3679     Eu3692   2.445       .  S
O3680      C3703   1.292       .  A
O3680     Eu3694   2.461       .  S
O3681      C3704   1.288       .  A
O3682      C3703   1.285       .  A
O3682     Eu3692   2.421       .  S
O3683      C3704   1.291       .  A
O3683     Eu3693   2.461       .  S
O3684      C3699   1.298       .  A
O3684     Eu3690   2.498       .  S
O3685      C3702   1.298       .  A
O3685     Eu3691   2.493       .  S
O3686      C3701   1.298       .  A
O3687      C3700   1.298       .  A
O3688      C3697   1.287       .  A
O3688     Eu3694   2.430       .  S
O3689      C3698   1.285       .  A
O3689     Eu3694   2.419       .  S
Eu3690     O3696   2.357       .  S
Eu3691     O3706   2.360       .  S
Eu3692     O3706   2.342       .  S
Eu3692     O3696   2.347       .  S
Eu3693     O3695   2.340       .  S
Eu3693     O3708   2.340       .  S
Eu3694     O3706   2.343       .  S
Eu3694     O3696   2.341       .  S
C3697      C4153   1.472       .  S
C3698      C4169   1.485       .  S
C3699      C3985   1.486       .  S
C3700      C3993   1.491       .  S
C3701      C3953   1.490       .  S
C3702      C3961   1.491       .  S
C3703      C3937   1.475       .  S
C3704      C3897   1.478       .  S
H3705      O3706   0.965       .  S
H3707      O3708   0.966       .  S
O3709      C3720   1.285       .  A
O3709     Eu3745   2.419       .  S
O3710      C3721   1.293       .  A
O3710     Eu3744   2.465       .  S
O3711      C3722   1.293       .  A
O3711     Eu3717   2.466       .  S
O3712      C3723   1.293       .  A
O3713      C3723   1.293       .  A
O3713     Eu3747   2.464       .  S
O3714      C3722   1.293       .  A
O3714     Eu3746   2.461       .  S
O3715      C3721   1.294       .  A
O3715     Eu3717   2.474       .  S
O3716      C3720   1.298       .  A
O3716     Eu3717   2.506       .  S
Eu3717     O3719   2.354       .  S
Eu3717     O3725   2.374       .  S
O3718     Eu3747   2.351       .  S
O3719     Eu3745   2.343       .  S
O3719     Eu3746   2.367       .  S
C3722      C3833   1.487       .  S
C3723      C3825   1.486       .  S
H3724      O3725   0.965       .  S
O3725     Eu3746   2.349       .  S
O3725     Eu3744   2.348       .  S
H3726      O3727   0.965       .  S
O3727     Eu3747   2.365       .  S
O3728      C3751   1.295       .  A
O3728     Eu3744   2.481   1_545  S
O3729      C3752   1.284       .  A
O3729     Eu3745   2.414       .  S
O3730      C3753   1.291       .  A
O3730     Eu3746   2.457       .  S
O3731      C3754   1.297       .  A
O3731     Eu3747   2.501       .  S
O3732      C3755   1.295       .  A
O3732     Eu3747   2.481       .  S
O3733      C3756   1.285       .  A
O3733     Eu3746   2.415       .  S
O3734      C3757   1.293       .  A
O3734     Eu3748   2.467   1_565  S
O3735      C3758   1.294       .  A
O3736      C3757   1.294       .  A
O3736     Eu3746   2.478       .  S
O3737      C3758   1.293       .  A
O3737     Eu3747   2.460       .  S
O3738      C3753   1.287       .  A
O3738     Eu3744   2.433       .  S
O3739      C3756   1.295       .  A
O3739     Eu3745   2.480       .  S
O3740      C3755   1.291       .  A
O3741      C3754   1.284       .  A
O3742      C3751   1.290       .  A
O3742     Eu3748   2.443       .  S
O3743      C3752   1.294   1_545  A
O3743     Eu3748   2.470       .  S
Eu3744     O3750   2.339       .  S
Eu3745     O3760   2.346       .  S
Eu3746     O3760   2.354       .  S
Eu3746     O3750   2.338       .  S
Eu3747     O3749   2.360       .  S
Eu3747     O3762   2.355       .  S
Eu3748     O3760   2.348   1_545  S
Eu3748     O3750   2.356   1_545  S
C3753      C3929   1.477       .  S
C3754      C3913   1.473       .  S
C3755      C3889   1.488       .  S
C3756      C3905   1.476       .  S
C3757      C3849   1.486       .  S
C3758      C3865   1.489       .  S
H3759      O3760   0.965       .  S
H3761      O3762   0.964       .  S
O3763      C3774   1.292       .  A
O3763     Eu3799   2.461       .  S
O3764      C3775   1.288       .  A
O3764     Eu3798   2.436       .  S
O3765      C3776   1.289       .  A
O3765     Eu4371   2.442       .  S
O3766      C3777   1.284       .  A
O3766     Eu3771   2.416       .  S
O3767      C3777   1.301       .  A
O3767     Eu3801   2.520       .  S
O3768      C3776   1.298       .  A
O3768     Eu3800   2.502       .  S
O3769      C3775   1.294       .  A
O3769     Eu3771   2.474       .  S
O3770      C3774   1.294       .  A
O3770     Eu3771   2.474       .  S
Eu3771     O4365   2.422       .  S
Eu3771     O3781   2.344       .  S
Eu3771     O4373   2.351       .  S
Eu3771     O3772   2.349       .  S
Eu3771     O4379   2.347       .  S
O3772     Eu3801   2.358       .  S
O3772     Eu3798   2.355       .  S
O3773     Eu4371   2.354       .  S
O3773     Eu4399   2.356       .  S
O3773     Eu3800   2.366       .  S
C3774      C4657   1.488       .  S
C3775      C4641   1.484       .  S
C3776      C3969   1.493       .  S
C3777      C3977   1.487       .  S
H3778      O3779   0.965       .  S
O3779     Eu4371   2.349       .  S
O3779     Eu3800   2.360       .  S
O3779     Eu4398   2.353   1_554  S
H3780      O3781   0.965       .  S
O3781     Eu3799   2.361       .  S
O3781     Eu3801   2.350       .  S
O3782      C3805   1.288       .  A
O3782     Eu3798   2.440       .  S
O3783      C3806   1.292       .  A
O3783     Eu3799   2.456       .  S
O3784      C3807   1.291       .  A
O3784     Eu3800   2.451       .  S
O3785      C3808   1.292       .  A
O3785     Eu3801   2.459       .  S
O3786      C3809   1.292       .  A
O3786     Eu3801   2.460       .  S
O3787      C3810   1.290       .  A
O3787     Eu3800   2.445       .  S
O3788      C3811   1.284       .  A
O3788     Eu4402   2.413   1_554  S
O3789      C3812   1.290       .  A
O3789     Eu3802   2.445       .  S
O3790      C3811   1.300       .  A
O3790     Eu3800   2.505       .  S
O3791      C3812   1.296       .  A
O3791     Eu3801   2.488       .  S
O3792      C3807   1.296       .  A
O3792     Eu4398   2.481   1_554  S
O3793      C3810   1.295       .  A
O3793     Eu4399   2.476       .  S
O3794      C3809   1.298       .  A
O3794     Eu3799   2.495       .  S
O3795      C3808   1.294       .  A
O3795     Eu3798   2.474       .  S
O3796      C3805   1.291       .  A
O3796     Eu3802   2.456       .  S
O3797      C3806   1.291       .  A
O3797     Eu3802   2.456       .  S
Eu3798     O4392   2.471       .  S
Eu3798     O4379   2.362       .  S
Eu3798     O3816   2.352       .  S
Eu3798     O4404   2.350       .  S
Eu3799     O4393   2.507       .  S
Eu3799     O4373   2.351       .  S
Eu3799     O3803   2.356       .  S
Eu3799     O4414   2.362       .  S
Eu3800     O3814   2.360       .  S
Eu3800     O3804   2.350       .  S
Eu3801     O3803   2.363       .  S
Eu3801     O3816   2.372       .  S
Eu3802     O4388   2.448       .  S
Eu3802     O3803   2.350       .  S
Eu3802     O4414   2.354       .  S
Eu3802     O3816   2.351       .  S
Eu3802     O4404   2.343       .  S
O3804     Eu4398   2.341   1_554  S
O3804     Eu4402   2.343   1_554  S
C3805      C4617   1.477       .  S
C3806      C4625   1.486       .  S
C3807      C3841   1.489       .  S
C3808      C3857   1.483       .  S
C3809      C3873   1.497       .  S
C3810      C3817   1.484       .  S
C3811      C3945   1.488       .  S
C3812      C4001   1.490       .  S
H3813      O3814   0.965       .  S
O3814     Eu4399   2.348       .  S
O3814     Eu4402   2.353   1_554  S
H3815      O3816   0.965       .  S
C3817      C3818   1.409       .  A
C3817      C3822   1.406       .  A
C3818      C3819   1.398       .  A
C3818      H3827   1.083       .  S
C3819      C3820   1.402       .  A
C3819      H3828   1.084       .  S
C3820      C3826   1.405       .  A
C3820      C3821   1.413       .  A
C3821      C3823   1.401       .  A
C3821      C3822   1.404       .  A
C3822      H3829   1.084       .  S
C3823      C3824   1.398       .  A
C3823      H3830   1.084       .  S
C3824      C3825   1.407       .  A
C3824      H3831   1.083       .  S
C3825      C3826   1.409       .  A
C3826      H3832   1.084       .  S
C3833      C3834   1.408       .  A
C3833      C3838   1.410       .  A
C3834      C3835   1.398       .  A
C3834      H3843   1.083       .  S
C3835      C3836   1.403       .  A
C3835      H3844   1.084       .  S
C3836      C3842   1.405       .  A
C3836      C3837   1.412       .  A
C3837      C3839   1.403       .  A
C3837      C3838   1.405       .  A
C3838      H3845   1.084       .  S
C3839      C3840   1.400       .  A
C3839      H3846   1.084       .  S
C3840      C3841   1.407       .  A
C3840      H3847   1.083       .  S
C3841      C3842   1.411       .  A
C3842      H3848   1.084       .  S
C3849      C3850   1.406       .  A
C3849      C3854   1.409       .  A
C3850      C3851   1.399       .  A
C3850      H3859   1.083       .  S
C3851      C3852   1.402       .  A
C3851      H3860   1.084       .  S
C3852      C3858   1.406       .  A
C3852      C3853   1.414       .  A
C3853      C3855   1.404       .  A
C3853      C3854   1.408       .  A
C3854      H3861   1.084       .  S
C3855      C3856   1.400       .  A
C3855      H3862   1.084       .  S
C3856      C3857   1.407       .  A
C3856      H3863   1.083       .  S
C3857      C3858   1.406       .  A
C3858      H3864   1.084       .  S
C3865      C3866   1.408       .  A
C3865      C3870   1.410       .  A
C3866      C3867   1.401       .  A
C3866      H3875   1.083       .  S
C3867      C3868   1.405       .  A
C3867      H3876   1.084       .  S
C3868      C3874   1.408       .  A
C3868      C3869   1.411       .  A
C3869      C3871   1.404       .  A
C3869      C3870   1.407       .  A
C3870      H3877   1.084       .  S
C3871      C3872   1.402       .  A
C3871      H3878   1.084       .  S
C3872      C3873   1.408       .  A
C3872      H3879   1.083       .  S
C3873      C3874   1.413       .  A
C3874      H3880   1.084       .  S
C3881      C3882   1.409       .  A
C3881      C3886   1.404       .  A
C3882      C3883   1.400       .  A
C3882      H3891   1.083       .  S
C3883      C3884   1.403       .  A
C3883      H3892   1.084       .  S
C3884      C3890   1.408       .  A
C3884      C3885   1.414       .  A
C3885      C3887   1.400       .  A
C3885      C3886   1.404       .  A
C3886      H3893   1.084       .  S
C3887      C3888   1.396       .  A
C3887      H3894   1.084       .  S
C3888      C3889   1.408       .  A
C3888      H3895   1.083       .  S
C3889      C3890   1.409       .  A
C3890      H3896   1.084       .  S
C3897      C3898   1.407       .  A
C3897      C3902   1.406       .  A
C3898      C3899   1.395       .  A
C3898      H3907   1.083       .  S
C3899      C3900   1.399       .  A
C3899      H3908   1.084       .  S
C3900      C3906   1.400       .  A
C3900      C3901   1.414       .  A
C3901      C3903   1.400       .  A
C3901      C3902   1.401       .  A
C3902      H3909   1.084       .  S
C3903      C3904   1.395       .  A
C3903      H3910   1.084       .  S
C3904      C3905   1.409       .  A
C3904      H3911   1.083       .  S
C3905      C3906   1.402       .  A
C3906      H3912   1.084       .  S
C3913      C3914   1.405       .  A
C3913      C3918   1.404       .  A
C3914      C3915   1.394       .  A
C3914      H3923   1.084       .  S
C3915      C3916   1.398       .  A
C3915      H3924   1.083       .  S
C3916      C3922   1.409       .  A
C3916      C3917   1.419       .  A
C3917      C3919   1.400       .  A
C3917      C3918   1.411       .  A
C3918      H3925   1.085       .  S
C3919      C3920   1.398       .  A
C3919      H3926   1.084       .  S
C3920      C3921   1.406       .  A
C3920      H3927   1.074       .  S
C3921      C3922   1.400       .  A
C3922      H3928   1.084       .  S
C3929      C3930   1.408       .  A
C3929      C3934   1.404       .  A
C3930      C3931   1.393       .  A
C3930      H3939   1.083       .  S
C3931      C3932   1.398       .  A
C3931      H3940   1.084       .  S
C3932      C3938   1.401       .  A
C3932      C3933   1.415       .  A
C3933      C3935   1.399       .  A
C3933      C3934   1.402       .  A
C3934      H3941   1.084       .  S
C3935      C3936   1.393       .  A
C3935      H3942   1.084       .  S
C3936      C3937   1.408       .  A
C3936      H3943   1.083       .  S
C3937      C3938   1.402       .  A
C3938      H3944   1.084       .  S
C3945      C3946   1.414       .  A
C3945      C3950   1.402       .  A
C3946      C3947   1.396       .  A
C3946      H3955   1.083       .  S
C3947      C3948   1.398       .  A
C3947      H3956   1.084       .  S
C3948      C3954   1.412       .  A
C3948      C3949   1.417       .  A
C3949      C3951   1.394       .  A
C3949      C3950   1.407       .  A
C3950      H3957   1.084       .  S
C3951      C3952   1.391       .  A
C3951      H3958   1.084       .  S
C3952      C3953   1.413       .  A
C3952      H3959   1.083       .  S
C3953      C3954   1.406       .  A
C3954      H3960   1.084       .  S
C3961      C3962   1.410       .  A
C3961      C3966   1.407       .  A
C3962      C3963   1.399       .  A
C3962      H3971   1.083       .  S
C3963      C3964   1.401       .  A
C3963      H3972   1.084       .  S
C3964      C3970   1.412       .  A
C3964      C3965   1.415       .  A
C3965      C3967   1.399       .  A
C3965      C3966   1.410       .  A
C3966      H3973   1.084       .  S
C3967      C3968   1.397       .  A
C3967      H3974   1.084       .  S
C3968      C3969   1.411       .  A
C3968      H3975   1.083       .  S
C3969      C3970   1.408       .  A
C3970      H3976   1.084       .  S
C3977      C3978   1.411       .  A
C3977      C3982   1.404       .  A
C3978      C3979   1.397       .  A
C3978      H3987   1.083       .  S
C3979      C3980   1.398       .  A
C3979      H3988   1.084       .  S
C3980      C3986   1.412       .  A
C3980      C3981   1.418       .  A
C3981      C3983   1.397       .  A
C3981      C3982   1.411       .  A
C3982      H3989   1.084       .  S
C3983      C3984   1.395       .  A
C3983      H3990   1.084       .  S
C3984      C3985   1.407       .  A
C3984      H3991   1.076       .  S
C3985      C3986   1.404       .  A
C3986      H3992   1.084       .  S
C3993      C3994   1.412       .  A
C3993      C3998   1.405       .  A
C3994      C3995   1.400       .  A
C3994      H4003   1.083       .  S
C3995      C3996   1.401       .  A
C3995      H4004   1.084       .  S
C3996      C4002   1.411       .  A
C3996      C3997   1.415       .  A
C3997      C3999   1.398       .  A
C3997      C3998   1.406       .  A
C3998      H4005   1.084       .  S
C3999      C4000   1.395       .  A
C3999      H4006   1.084       .  S
C4000      C4001   1.410       .  A
C4000      H4007   1.083       .  S
C4001      C4002   1.409       .  A
C4002      H4008   1.084       .  S
C4009      C4010   1.405       .  A
C4009      C4614   1.408   1_556  A
C4010      C4011   1.395       .  A
C4010      H4019   1.083       .  S
C4011      C4012   1.401       .  A
C4011      H4020   1.083       .  S
C4012      C4018   1.402       .  A
C4012      C4013   1.414   1_556  A
C4013      C4615   1.402       .  A
C4013      C4614   1.404       .  A
C4014      C4609   1.404       .  A
C4014      C4613   1.397       .  A
C4014      H4021   1.084       .  S
C4015      C4613   1.400       .  A
C4015      C4016   1.393       .  A
C4015      H4022   1.084       .  S
C4016      C4617   1.406       .  A
C4016      H4023   1.083       .  S
C4017      C4405   1.480   1_554  S
C4017      C4616   1.407       .  A
C4017      C4018   1.405   1_554  A
C4018      H4024   1.084       .  S
C4025      C4406   1.480       .  S
C4025      C4626   1.406       .  A
C4025      C4030   1.409   1_554  A
C4026      C4625   1.408       .  A
C4026      C4027   1.395       .  A
C4026      H4035   1.083       .  S
C4027      C4028   1.400       .  A
C4027      H4036   1.084       .  S
C4028      C4034   1.403       .  A
C4028      C4629   1.413       .  A
C4029      C4628   1.413   1_556  A
C4029      C4031   1.403       .  A
C4029      C4030   1.404       .  A
C4030      H4037   1.084       .  S
C4031      C4032   1.399       .  A
C4031      H4038   1.084       .  S
C4032      C4033   1.408       .  A
C4032      H4039   1.083       .  S
C4033      C4634   1.406   1_556  A
C4034      C4633   1.407       .  A
C4034      H4040   1.084       .  S
C4041      C4375   1.482       .  S
C4041      C4642   1.407   1_556  A
C4041      C4046   1.408       .  A
C4042      C4641   1.409       .  A
C4042      C4043   1.397       .  A
C4042      H4051   1.083       .  S
C4043      C4044   1.402       .  A
C4043      H4052   1.084       .  S
C4044      C4050   1.401       .  A
C4044      C4645   1.412       .  A
C4045      C4644   1.414       .  A
C4045      C4047   1.402       .  A
C4045      C4046   1.406       .  A
C4046      H4053   1.084       .  S
C4047      C4048   1.398       .  A
C4047      H4054   1.083       .  S
C4048      C4049   1.407       .  A
C4048      H4055   1.083       .  S
C4049      C4650   1.405       .  A
C4050      C4649   1.410       .  A
C4050      H4056   1.084       .  S
C4057      C4374   1.482   1_556  S
C4057      C4658   1.407       .  A
C4057      C4062   1.408   1_556  A
C4058      C4657   1.407       .  A
C4058      C4059   1.399       .  A
C4058      H4067   1.083       .  S
C4059      C4060   1.403       .  A
C4059      H4068   1.084       .  S
C4060      C4066   1.407       .  A
C4060      C4661   1.413       .  A
C4061      C4660   1.412   1_554  A
C4061      C4063   1.402       .  A
C4061      C4062   1.402       .  A
C4062      H4069   1.084       .  S
C4063      C4064   1.397       .  A
C4063      H4070   1.084       .  S
C4064      C4065   1.407   1_554  A
C4064      H4071   1.083       .  S
C4065      C4666   1.406       .  A
C4066      C4665   1.408       .  A
C4066      H4072   1.084       .  S
C4073      C4074   1.410       .  A
C4074      C4075   1.396       .  A
C4074      H4083   1.083       .  S
C4075      C4076   1.400       .  A
C4075      H4084   1.084       .  S
C4076      C4082   1.405       .  A
C4077      C4079   1.397       .  A
C4077      C4078   1.399       .  A
C4078      H4085   1.084       .  S
C4079      C4080   1.392       .  A
C4079      H4086   1.084       .  S
C4080      H4087   1.083       .  S
C4081      C4082   1.408       .  A
C4082      H4088   1.084       .  S
C4089      C4090   1.413       .  A
C4090      C4091   1.400       .  A
C4090      H4099   1.083       .  S
C4091      C4092   1.401       .  A
C4091      H4100   1.084       .  S
C4092      C4098   1.411       .  A
C4093      C4095   1.397       .  A
C4093      C4094   1.406       .  A
C4094      H4101   1.084       .  S
C4095      C4096   1.394       .  A
C4095      H4102   1.084       .  S
C4096      H4103   1.083       .  S
C4097      C4098   1.410       .  A
C4098      H4104   1.084       .  S
C4105      C4106   1.411       .  A
C4106      C4107   1.398       .  A
C4106      H4115   1.083       .  S
C4107      C4108   1.400       .  A
C4107      H4116   1.084       .  S
C4108      C4114   1.410       .  A
C4109      C4111   1.399       .  A
C4109      C4110   1.411       .  A
C4110      H4117   1.084       .  S
C4111      C4112   1.396       .  A
C4111      H4118   1.083       .  S
C4112      H4119   1.083       .  S
C4113      C4114   1.408       .  A
C4114      H4120   1.084       .  S
C4121      C4126   1.406       .  A
C4122      C4123   1.393       .  A
C4122      H4131   1.083       .  S
C4123      C4124   1.397       .  A
C4123      H4132   1.084       .  S
C4124      C4130   1.407       .  A
C4125      C4127   1.399       .  A
C4125      C4126   1.410       .  A
C4126      H4133   1.084       .  S
C4127      C4128   1.398       .  A
C4127      H4134   1.084       .  S
C4128      C4129   1.414       .  A
C4128      H4135   1.083       .  S
C4130      H4136   1.084       .  S
C4137      C4142   1.407       .  A
C4138      C4139   1.400       .  A
C4138      H4147   1.083       .  S
C4139      C4140   1.402       .  A
C4139      H4148   1.084       .  S
C4140      C4146   1.410   1_455  A
C4141      C4143   1.400       .  A
C4141      C4142   1.407       .  A
C4142      H4149   1.084       .  S
C4143      C4144   1.397       .  A
C4143      H4150   1.084       .  S
C4144      C4145   1.411       .  A
C4144      H4151   1.083       .  S
C4146      H4152   1.084       .  S
C4153      C4154   1.407       .  A
C4154      C4155   1.392       .  A
C4154      H4163   1.083       .  S
C4155      C4156   1.399       .  A
C4155      H4164   1.084       .  S
C4156      C4162   1.397       .  A
C4157      C4159   1.400       .  A
C4157      C4158   1.400       .  A
C4158      H4165   1.084       .  S
C4159      C4160   1.396       .  A
C4159      H4166   1.084       .  S
C4160      H4167   1.083       .  S
C4161      C4162   1.402       .  A
C4162      H4168   1.084       .  S
C4169      C4174   1.403       .  A
C4170      C4171   1.394       .  A
C4170      H4179   1.083       .  S
C4171      C4172   1.397       .  A
C4171      H4180   1.084       .  S
C4172      C4178   1.410       .  A
C4173      C4175   1.396       .  A
C4173      C4174   1.409       .  A
C4174      H4181   1.084       .  S
C4175      C4176   1.394       .  A
C4175      H4182   1.084       .  S
C4176      C4177   1.414       .  A
C4176      H4183   1.083       .  S
C4178      H4184   1.084       .  S
C4185      C4186   1.411       .  A
C4186      C4187   1.398       .  A
C4186      H4195   1.083       .  S
C4187      C4188   1.400       .  A
C4187      H4196   1.084       .  S
C4188      C4194   1.410       .  A
C4189      C4191   1.400       .  A
C4189      C4190   1.409       .  A
C4190      H4197   1.084       .  S
C4191      C4192   1.398       .  A
C4191      H4198   1.084       .  S
C4192      H4199   1.083       .  S
C4193      C4194   1.409       .  A
C4194      H4200   1.084       .  S
O4201      C4212   1.300       .  A
O4201     Eu4237   2.499       .  S
O4202      C4213   1.285       .  A
O4202     Eu4236   2.417       .  S
O4203      C4214   1.293       .  A
O4203     Eu4209   2.467       .  S
O4204      C4215   1.290       .  A
O4205      C4215   1.292       .  A
O4205     Eu4239   2.464       .  S
O4206      C4214   1.292       .  A
O4206     Eu4238   2.464       .  S
O4207      C4213   1.296       .  A
O4208      C4212   1.292       .  A
O4208     Eu4209   2.456       .  S
Eu4209     O4211   2.354       .  S
O4211     Eu4237   2.371       .  S
O4211     Eu4238   2.347       .  S
C4212      C4793   1.497       .  S
C4213      C4737   1.482       .  S
C4214      C4665   1.488       .  S
C4215      C4633   1.487       .  S
H4216      O4217   0.964       .  S
O4217     Eu4236   2.362       .  S
H4218      O4219   0.965       .  S
O4219     Eu4239   2.348       .  S
O4220      C4243   1.291       .  A
O4221      C4244   1.302       .  A
O4222      C4245   1.295       .  A
O4223      C4246   1.285       .  A
O4224      C4247   1.287       .  A
O4224     Eu4239   2.429       .  S
O4225      C4248   1.295       .  A
O4225     Eu4238   2.472       .  S
O4226      C4249   1.294       .  A
O4226     Eu4240   2.474       .  S
O4227      C4250   1.293       .  A
O4228      C4249   1.288       .  A
O4229      C4250   1.288       .  A
O4230      C4245   1.289       .  A
O4230     Eu4236   2.437       .  S
O4231      C4248   1.297       .  A
O4231     Eu4237   2.489       .  S
O4232      C4247   1.298       .  A
O4233      C4246   1.292       .  A
O4234      C4243   1.286       .  A
O4235      C4244   1.285       .  A
O4235     Eu4240   2.423       .  S
Eu4240     O4252   2.355       .  S
C4243      C4761   1.466       .  S
C4244      C4777   1.491       .  S
C4245      C4689   1.484       .  S
C4246      C4681   1.473       .  S
C4247      C4729   1.481       .  S
C4248      C4705   1.501       .  S
C4249      C4649   1.483       .  S
C4250      C4609   1.477       .  S
H4251      O4252   0.965       .  S
H4253      O4254   0.965       .  S
O4255      C4266   1.297       .  A
O4255     Eu4291   2.490       .  S
O4256      C4267   1.287       .  A
O4256     Eu4290   2.424       .  S
O4257      C4268   1.297       .  A
O4257     Eu4263   2.498       .  S
O4258      C4269   1.293       .  A
O4259      C4269   1.290       .  A
O4259     Eu4293   2.450       .  S
O4260      C4268   1.283       .  A
O4260     Eu4292   2.414       .  S
O4261      C4267   1.300       .  A
O4261     Eu4263   2.503       .  S
O4262      C4266   1.294       .  A
O4262     Eu4263   2.464       .  S
Eu4263     O4265   2.351       .  S
Eu4263     O4271   2.342       .  S
O4264     Eu4293   2.345       .  S
O4265     Eu4291   2.361       .  S
O4265     Eu4292   2.333       .  S
C4266      C4785   1.498       .  S
C4267      C4745   1.489       .  S
C4268      C4521   1.483       .  S
C4269      C4481   1.483       .  S
H4270      O4271   0.967       .  S
O4271     Eu4292   2.342       .  S
O4271     Eu4290   2.366       .  S
H4272      O4273   0.967       .  S
O4273     Eu4293   2.359       .  S
O4274      C4297   1.292       .  A
O4274     Eu4290   2.462       .  S
O4275      C4298   1.299       .  A
O4275     Eu4291   2.503       .  S
O4276      C4299   1.287       .  A
O4276     Eu4292   2.432       .  S
O4277      C4300   1.287       .  A
O4277     Eu4293   2.435       .  S
O4278      C4301   1.284       .  A
O4278     Eu4293   2.413       .  S
O4279      C4302   1.286       .  A
O4279     Eu4292   2.429       .  S
O4280      C4303   1.291       .  A
O4280     Eu4294   2.454       .  S
O4281      C4304   1.291       .  A
O4282      C4303   1.286       .  A
O4282     Eu4292   2.428       .  S
O4283      C4304   1.291       .  A
O4283     Eu4293   2.462       .  S
O4284      C4299   1.297       .  A
O4284     Eu4290   2.489       .  S
O4285      C4302   1.298       .  A
O4285     Eu4291   2.494       .  S
O4286      C4301   1.298       .  A
O4287      C4300   1.298       .  A
O4288      C4297   1.290       .  A
O4288     Eu4294   2.449       .  S
O4289      C4298   1.288       .  A
O4289     Eu4294   2.435       .  S
Eu4290     O4296   2.360       .  S
Eu4291     O4306   2.365       .  S
Eu4292     O4306   2.345       .  S
Eu4292     O4296   2.342       .  S
Eu4293     O4295   2.340       .  S
Eu4293     O4308   2.347       .  S
Eu4294     O4306   2.349       .  S
Eu4294     O4296   2.349       .  S
C4297      C4753   1.471       .  S
C4298      C4769   1.485       .  S
C4299      C4585   1.480       .  S
C4300      C4593   1.491       .  S
C4301      C4553   1.484       .  S
C4302      C4561   1.487       .  S
C4303      C4537   1.473       .  S
C4304      C4497   1.485       .  S
H4305      O4306   0.965       .  S
H4307      O4308   0.966       .  S
O4309      C4320   1.284       .  A
O4309     Eu4345   2.417       .  S
O4310      C4321   1.294       .  A
O4310     Eu4344   2.464       .  S
O4311      C4322   1.292       .  A
O4311     Eu4317   2.460       .  S
O4312      C4323   1.296       .  A
O4313      C4323   1.293       .  A
O4313     Eu4347   2.465       .  S
O4314      C4322   1.294       .  A
O4314     Eu4346   2.467       .  S
O4315      C4321   1.298       .  A
O4315     Eu4317   2.492       .  S
O4316      C4320   1.300       .  A
O4316     Eu4317   2.521       .  S
Eu4317     O4319   2.357       .  S
Eu4317     O4325   2.372       .  S
O4318     Eu4347   2.356       .  S
O4319     Eu4345   2.340       .  S
O4319     Eu4346   2.364       .  S
C4322      C4433   1.486       .  S
C4323      C4425   1.496       .  S
H4324      O4325   0.964       .  S
O4325     Eu4346   2.354       .  S
O4325     Eu4344   2.353       .  S
H4326      O4327   0.965       .  S
O4327     Eu4347   2.367       .  S
O4328      C4351   1.297       .  A
O4328     Eu4344   2.496   1_545  S
O4329      C4352   1.282   1_565  A
O4329     Eu4345   2.404       .  S
O4330      C4353   1.291       .  A
O4330     Eu4346   2.456       .  S
O4331      C4354   1.299       .  A
O4331     Eu4347   2.505       .  S
O4332      C4355   1.299       .  A
O4332     Eu4347   2.502       .  S
O4333      C4356   1.288       .  A
O4333     Eu4346   2.435       .  S
O4334      C4357   1.291       .  A
O4334     Eu4348   2.453   1_565  S
O4335      C4358   1.290       .  A
O4336      C4357   1.296       .  A
O4336     Eu4346   2.484       .  S
O4337      C4358   1.293       .  A
O4337     Eu4347   2.465       .  S
O4338      C4353   1.287       .  A
O4338     Eu4344   2.432       .  S
O4339      C4356   1.296       .  A
O4339     Eu4345   2.485       .  S
O4340      C4355   1.290       .  A
O4341      C4354   1.286       .  A
O4342      C4351   1.290       .  A
O4342     Eu4348   2.448       .  S
O4343      C4352   1.294       .  A
O4343     Eu4348   2.470       .  S
Eu4344     O4350   2.345       .  S
Eu4345     O4360   2.344       .  S
Eu4346     O4360   2.352       .  S
Eu4346     O4350   2.346       .  S
Eu4347     O4349   2.362       .  S
Eu4347     O4362   2.362       .  S
Eu4348     O4360   2.347   1_545  S
Eu4348     O4350   2.356   1_545  S
C4353      C4529   1.474       .  S
C4354      C4513   1.486       .  S
C4355      C4489   1.491       .  S
C4356      C4505   1.486       .  S
C4357      C4449   1.490       .  S
C4358      C4465   1.484       .  S
H4359      O4360   0.965       .  S
H4361      O4362   0.966       .  S
O4363      C4374   1.291       .  A
O4363     Eu4399   2.455       .  S
O4364      C4375   1.291       .  A
O4364     Eu4398   2.457       .  S
O4365      C4376   1.286       .  A
O4366      C4377   1.286       .  A
O4366     Eu4371   2.425   1_556  S
O4367      C4377   1.295       .  A
O4367     Eu4401   2.477       .  S
O4368      C4376   1.298       .  A
O4368     Eu4400   2.501       .  S
O4369      C4375   1.290       .  A
O4369     Eu4371   2.454   1_556  S
O4370      C4374   1.291       .  A
O4370     Eu4371   2.456       .  S
Eu4371     O4381   2.349   1_554  S
Eu4371     O4372   2.348   1_554  S
O4372     Eu4401   2.363       .  S
O4372     Eu4398   2.349       .  S
O4373     Eu4400   2.357       .  S
C4376      C4569   1.489       .  S
C4377      C4577   1.479       .  S
H4378      O4379   0.965       .  S
O4379     Eu4400   2.366       .  S
H4380      O4381   0.965       .  S
O4381     Eu4399   2.353   1_556  S
O4381     Eu4401   2.362       .  S
O4382      C4405   1.290       .  A
O4382     Eu4398   2.450       .  S
O4383      C4406   1.291       .  A
O4383     Eu4399   2.454       .  S
O4384      C4407   1.292       .  A
O4384     Eu4400   2.457       .  S
O4385      C4408   1.294       .  A
O4385     Eu4401   2.466       .  S
O4386      C4409   1.294       .  A
O4386     Eu4401   2.468       .  S
O4387      C4410   1.292       .  A
O4387     Eu4400   2.454       .  S
O4388      C4411   1.289       .  A
O4389      C4412   1.289       .  A
O4389     Eu4402   2.447       .  S
O4390      C4411   1.298       .  A
O4390     Eu4400   2.500       .  S
O4391      C4412   1.297       .  A
O4391     Eu4401   2.497       .  S
O4392      C4407   1.294       .  A
O4393      C4410   1.300       .  A
O4394      C4409   1.292       .  A
O4394     Eu4399   2.458   1_556  S
O4395      C4408   1.293       .  A
O4395     Eu4398   2.466       .  S
O4396      C4405   1.291       .  A
O4396     Eu4402   2.455       .  S
O4397      C4406   1.289   1_556  A
O4397     Eu4402   2.447       .  S
Eu4398     O4416   2.369       .  S
Eu4399     O4403   2.357   1_554  S
Eu4400     O4414   2.363       .  S
Eu4400     O4404   2.357       .  S
Eu4401     O4403   2.350       .  S
Eu4401     O4416   2.361       .  S
Eu4402     O4403   2.335       .  S
Eu4402     O4416   2.345       .  S
C4407      C4441   1.486       .  S
C4408      C4457   1.489       .  S
C4409      C4473   1.487       .  S
C4410      C4417   1.500       .  S
C4411      C4545   1.489       .  S
C4412      C4601   1.491       .  S
H4413      O4414   0.965       .  S
H4415      O4416   0.966       .  S
C4417      C4418   1.412       .  A
C4417      C4422   1.410       .  A
C4418      C4419   1.402       .  A
C4418      H4427   1.083       .  S
C4419      C4420   1.403       .  A
C4419      H4428   1.084       .  S
C4420      C4426   1.413       .  A
C4420      C4421   1.413       .  A
C4421      C4423   1.402       .  A
C4421      C4422   1.412       .  A
C4422      H4429   1.084       .  S
C4423      C4424   1.400       .  A
C4423      H4430   1.083       .  S
C4424      C4425   1.408       .  A
C4424      H4431   1.083       .  S
C4425      C4426   1.412       .  A
C4426      H4432   1.084       .  S
C4433      C4434   1.406       .  A
C4433      C4438   1.411       .  A
C4434      C4435   1.397       .  A
C4434      H4443   1.083       .  S
C4435      C4436   1.402       .  A
C4435      H4444   1.084       .  S
C4436      C4442   1.403       .  A
C4436      C4437   1.412       .  A
C4437      C4439   1.404       .  A
C4437      C4438   1.406       .  A
C4438      H4445   1.084       .  S
C4439      C4440   1.400       .  A
C4439      H4446   1.084       .  S
C4440      C4441   1.407       .  A
C4440      H4447   1.083       .  S
C4441      C4442   1.408       .  A
C4442      H4448   1.084       .  S
C4449      C4450   1.410       .  A
C4449      C4454   1.408       .  A
C4450      C4451   1.400       .  A
C4450      H4459   1.083       .  S
C4451      C4452   1.402       .  A
C4451      H4460   1.084       .  S
C4452      C4458   1.407       .  A
C4452      C4453   1.413       .  A
C4453      C4455   1.401       .  A
C4453      C4454   1.406       .  A
C4454      H4461   1.084       .  S
C4455      C4456   1.398       .  A
C4455      H4462   1.084       .  S
C4456      C4457   1.408       .  A
C4456      H4463   1.083       .  S
C4457      C4458   1.410       .  A
C4458      H4464   1.084       .  S
C4465      C4466   1.406       .  A
C4465      C4470   1.411       .  A
C4466      C4467   1.393       .  A
C4466      H4475   1.083       .  S
C4467      C4468   1.399       .  A
C4467      H4476   1.083       .  S
C4468      C4474   1.402       .  A
C4468      C4469   1.413       .  A
C4469      C4471   1.403       .  A
C4469      C4470   1.408       .  A
C4470      H4477   1.084       .  S
C4471      C4472   1.401       .  A
C4471      H4478   1.084       .  S
C4472      C4473   1.409       .  A
C4472      H4479   1.083       .  S
C4473      C4474   1.406       .  A
C4474      H4480   1.084       .  S
C4481      C4482   1.407       .  A
C4481      C4486   1.407       .  A
C4482      C4483   1.398       .  A
C4482      H4491   1.083       .  S
C4483      C4484   1.402       .  A
C4483      H4492   1.083       .  S
C4484      C4490   1.409       .  A
C4484      C4485   1.415       .  A
C4485      C4487   1.401       .  A
C4485      C4486   1.408       .  A
C4486      H4493   1.084       .  S
C4487      C4488   1.400       .  A
C4487      H4494   1.084       .  S
C4488      C4489   1.411       .  A
C4488      H4495   1.083       .  S
C4489      C4490   1.407       .  A
C4490      H4496   1.084       .  S
C4497      C4498   1.407       .  A
C4497      C4502   1.408       .  A
C4498      C4499   1.397       .  A
C4498      H4507   1.083       .  S
C4499      C4500   1.401       .  A
C4499      H4508   1.084       .  S
C4500      C4506   1.405       .  A
C4500      C4501   1.414       .  A
C4501      C4503   1.401       .  A
C4501      C4502   1.405       .  A
C4502      H4509   1.084       .  S
C4503      C4504   1.397       .  A
C4503      H4510   1.084       .  S
C4504      C4505   1.410       .  A
C4504      H4511   1.083       .  S
C4505      C4506   1.406       .  A
C4506      H4512   1.084       .  S
C4513      C4514   1.411       .  A
C4513      C4518   1.405       .  A
C4514      C4515   1.392       .  A
C4514      H4523   1.083       .  S
C4515      C4516   1.396       .  A
C4515      H4524   1.084       .  S
C4516      C4522   1.409       .  A
C4516      C4517   1.419       .  A
C4517      C4519   1.398       .  A
C4517      C4518   1.412       .  A
C4518      H4525   1.084       .  S
C4519      C4520   1.396       .  A
C4519      H4526   1.084       .  S
C4520      C4521   1.411       .  A
C4520      H4527   1.083       .  S
C4521      C4522   1.401       .  A
C4522      H4528   1.084       .  S
C4529      C4530   1.407       .  A
C4529      C4534   1.405       .  A
C4530      C4531   1.391       .  A
C4530      H4539   1.083       .  S
C4531      C4532   1.397       .  A
C4531      H4540   1.084       .  S
C4532      C4538   1.396       .  A
C4532      C4533   1.414       .  A
C4533      C4535   1.400       .  A
C4533      C4534   1.400       .  A
C4534      H4541   1.084       .  S
C4535      C4536   1.395       .  A
C4535      H4542   1.084       .  S
C4536      C4537   1.408       .  A
C4536      H4543   1.083       .  S
C4537      C4538   1.402       .  A
C4538      H4544   1.084       .  S
C4545      C4546   1.410       .  A
C4545      C4550   1.404       .  A
C4546      C4547   1.400       .  A
C4546      H4555   1.083       .  S
C4547      C4548   1.400       .  A
C4547      H4556   1.084       .  S
C4548      C4554   1.412       .  A
C4548      C4549   1.417       .  A
C4549      C4551   1.397       .  A
C4549      C4550   1.409       .  A
C4550      H4557   1.084       .  S
C4551      C4552   1.393       .  A
C4551      H4558   1.084       .  S
C4552      C4553   1.410       .  A
C4552      H4559   1.083       .  S
C4553      C4554   1.405       .  A
C4554      H4560   1.084       .  S
C4561      C4562   1.412       .  A
C4561      C4566   1.403       .  A
C4562      C4563   1.398       .  A
C4562      H4571   1.083       .  S
C4563      C4564   1.400       .  A
C4563      H4572   1.084       .  S
C4564      C4570   1.410       .  A
C4564      C4565   1.416       .  A
C4565      C4567   1.396       .  A
C4565      C4566   1.405       .  A
C4566      H4573   1.084       .  S
C4567      C4568   1.393       .  A
C4567      H4574   1.084       .  S
C4568      C4569   1.412       .  A
C4568      H4575   1.083       .  S
C4569      C4570   1.407       .  A
C4570      H4576   1.084       .  S
C4577      C4578   1.409       .  A
C4577      C4582   1.404       .  A
C4578      C4579   1.392       .  A
C4578      H4587   1.083       .  S
C4579      C4580   1.396       .  A
C4579      H4588   1.084       .  S
C4580      C4586   1.404       .  A
C4580      C4581   1.417       .  A
C4581      C4583   1.399       .  A
C4581      C4582   1.406       .  A
C4582      H4589   1.084       .  S
C4583      C4584   1.395       .  A
C4583      H4590   1.084       .  S
C4584      C4585   1.410       .  A
C4584      H4591   1.083       .  S
C4585      C4586   1.401       .  A
C4586      H4592   1.084       .  S
C4593      C4594   1.410       .  A
C4593      C4598   1.407       .  A
C4594      C4595   1.399       .  A
C4594      H4603   1.083       .  S
C4595      C4596   1.401       .  A
C4595      H4604   1.084       .  S
C4596      C4602   1.412       .  A
C4596      C4597   1.416       .  A
C4597      C4599   1.401       .  A
C4597      C4598   1.412       .  A
C4598      H4605   1.084       .  S
C4599      C4600   1.399       .  A
C4599      H4606   1.084       .  S
C4600      C4601   1.410       .  A
C4600      H4607   1.083       .  S
C4601      C4602   1.407       .  A
C4602      H4608   1.084       .  S
C4609      C4610   1.408       .  A
C4610      C4611   1.398       .  A
C4610      H4619   1.083       .  S
C4611      C4612   1.403       .  A
C4611      H4620   1.084       .  S
C4612      C4618   1.401       .  A
C4612      C4613   1.412       .  A
C4614      H4621   1.084       .  S
C4615      C4616   1.397       .  A
C4615      H4622   1.084       .  S
C4616      H4623   1.083       .  S
C4617      C4618   1.408       .  A
C4618      H4624   1.084       .  S
C4625      C4630   1.410       .  A
C4626      C4627   1.395       .  A
C4626      H4635   1.083       .  S
C4627      C4628   1.401       .  A
C4627      H4636   1.084       .  S
C4628      C4634   1.401       .  A
C4629      C4631   1.403       .  A
C4629      C4630   1.407       .  A
C4630      H4637   1.084       .  S
C4631      C4632   1.400       .  A
C4631      H4638   1.084       .  S
C4632      C4633   1.409       .  A
C4632      H4639   1.083       .  S
C4634      H4640   1.084       .  S
C4641      C4646   1.407       .  A
C4642      C4643   1.394       .  A
C4642      H4651   1.083       .  S
C4643      C4644   1.399   1_554  A
C4643      H4652   1.084       .  S
C4644      C4650   1.402       .  A
C4645      C4647   1.402       .  A
C4645      C4646   1.402       .  A
C4646      H4653   1.084       .  S
C4647      C4648   1.397       .  A
C4647      H4654   1.084       .  S
C4648      C4649   1.406       .  A
C4648      H4655   1.083       .  S
C4650      H4656   1.084   1_556  S
C4657      C4662   1.410       .  A
C4658      C4659   1.396       .  A
C4658      H4667   1.083       .  S
C4659      C4660   1.401       .  A
C4659      H4668   1.084       .  S
C4660      C4666   1.400       .  A
C4661      C4663   1.404       .  A
C4661      C4662   1.409       .  A
C4662      H4669   1.084       .  S
C4663      C4664   1.402       .  A
C4663      H4670   1.084       .  S
C4664      C4665   1.408       .  A
C4664      H4671   1.083       .  S
C4666      H4672   1.084       .  S
C4673      C4674   1.409       .  A
C4674      C4675   1.393       .  A
C4674      H4683   1.083       .  S
C4675      C4676   1.398       .  A
C4675      H4684   1.084       .  S
C4676      C4682   1.401       .  A
C4677      C4679   1.396       .  A
C4677      C4678   1.398       .  A
C4678      H4685   1.084       .  S
C4679      C4680   1.390       .  A
C4679      H4686   1.084       .  S
C4680      H4687   1.083       .  S
C4681      C4682   1.403       .  A
C4682      H4688   1.084       .  S
C4689      C4690   1.408       .  A
C4690      C4691   1.396       .  A
C4690      H4699   1.083       .  S
C4691      C4692   1.400       .  A
C4691      H4700   1.083       .  S
C4692      C4698   1.409       .  A
C4693      C4695   1.401       .  A
C4693      C4694   1.409   1_545  A
C4694      H4701   1.084   1_565  S
C4695      C4696   1.399       .  A
C4695      H4702   1.084       .  S
C4696      H4703   1.083       .  S
C4697      C4698   1.407       .  A
C4698      H4704   1.084       .  S
C4705      C4706   1.411       .  A
C4706      C4707   1.402       .  A
C4706      H4715   1.083       .  S
C4707      C4708   1.403       .  A
C4707      H4716   1.084       .  S
C4708      C4714   1.415       .  A
C4709      C4711   1.401   1_565  A
C4709      C4710   1.412       .  A
C4710      H4717   1.084   1_565  S
C4711      C4712   1.399       .  A
C4711      H4718   1.084       .  S
C4712      H4719   1.083       .  S
C4713      C4714   1.413       .  A
C4714      H4720   1.084       .  S
C4721      C4726   1.405       .  A
C4722      C4723   1.396       .  A
C4722      H4731   1.083       .  S
C4723      C4724   1.398       .  A
C4723      H4732   1.084       .  S
C4724      C4730   1.411       .  A
C4725      C4727   1.400       .  A
C4725      C4726   1.413       .  A
C4726      H4733   1.084       .  S
C4727      C4728   1.396       .  A
C4727      H4734   1.083       .  S
C4728      C4729   1.408       .  A
C4728      H4735   1.084       .  S
C4730      H4736   1.084       .  S
C4737      C4742   1.403       .  A
C4738      C4739   1.394       .  A
C4738      H4747   1.083       .  S
C4739      C4740   1.398       .  A
C4739      H4748   1.084       .  S
C4740      C4746   1.408       .  A
C4741      C4743   1.396       .  A
C4741      C4742   1.405       .  A
C4742      H4749   1.084       .  S
C4743      C4744   1.394       .  A
C4743      H4750   1.084       .  S
C4744      C4745   1.412       .  A
C4744      H4751   1.083       .  S
C4746      H4752   1.084       .  S
C4753      C4754   1.405       .  A
C4754      C4755   1.395       .  A
C4754      H4763   1.083       .  S
C4755      C4756   1.400       .  A
C4755      H4764   1.084       .  S
C4756      C4762   1.400       .  A
C4757      C4759   1.402       .  A
C4757      C4758   1.402       .  A
C4758      H4765   1.085       .  S
C4759      C4760   1.395       .  A
C4759      H4766   1.084       .  S
C4760      H4767   1.084       .  S
C4761      C4762   1.400       .  A
C4762      H4768   1.085       .  S
C4769      C4774   1.408       .  A
C4770      C4771   1.394       .  A
C4770      H4779   1.083       .  S
C4771      C4772   1.398       .  A
C4771      H4780   1.083       .  S
C4772      C4778   1.409       .  A
C4773      C4775   1.401       .  A
C4773      C4774   1.414       .  A
C4774      H4781   1.084       .  S
C4775      C4776   1.401       .  A
C4775      H4782   1.084       .  S
C4776      C4777   1.413       .  A
C4776      H4783   1.084       .  S
C4778      H4784   1.084       .  S
C4785      C4786   1.410       .  A
C4786      C4787   1.397       .  A
C4786      H4795   1.083       .  S
C4787      C4788   1.399       .  A
C4787      H4796   1.084       .  S
C4788      C4794   1.411       .  A
C4789      C4791   1.402       .  A
C4789      C4790   1.415       .  A
C4790      H4797   1.084       .  S
C4791      C4792   1.402       .  A
C4791      H4798   1.084       .  S
C4792      H4799   1.083       .  S
C4793      C4794   1.408       .  A
C4794      H4800   1.084       .  S
