geometry optimzed in LAMMPS
_audit_creation_date              2020-11-30 
_audit_creation_method            'lammps2cif' 
_symmetry_space_group_name_H-M    'P1' 
_symmetry_Int_Tables_number       1 
_symmetry_cell_setting            triclinic 
loop_ 
_symmetry_equiv_pos_as_xyz 
  x,y,z 
_cell_length_a                    36.70498745 
_cell_length_b                    36.57614185670774 
_cell_length_c                    45.060532953500086 
_cell_angle_alpha                 90.04867460716974 
_cell_angle_beta                  89.0800866133545 
_cell_angle_gamma                 90.04489158127495 
loop_ 
_atom_site_label 
_atom_site_type_symbol 
_atom_site_fract_x 
_atom_site_fract_y 
_atom_site_fract_z 
_atom_site_charge 
N1          N  0.44405495  0.99923387  0.00113049    -0.36600
N2          N  0.99670843  0.44141821  0.98904679    -0.57100
N3          N  0.05596351  0.99370117  0.99134995    -0.36500
N4          N  0.00158033  0.05077312  0.99287684    -0.57100
C5          C  0.42098448  0.46933239  0.01345642     0.27000
C6          C  0.42369237  0.02888473  0.00820437     0.27000
C7          C  0.07382626  0.46482787  0.99563894     0.27000
C8          C  0.07716812  0.02317176  0.99674897     0.27000
C9          C  0.46577416  0.41836004  0.00684968     0.35600
C10         C  0.02562035  0.41986643  0.98270111     0.35700
C11         C  0.47140572  0.07588525  0.00166759     0.35600
C12         C  0.03136338  0.07157423  0.98742373     0.35700
C13         C  0.38713996  0.48281819  0.02219942    -0.21800
C14         C  0.38998477  0.01785391  0.01919442    -0.21800
C15         C  0.10788378  0.47369907  0.00653696    -0.21800
C16         C  0.11073504  0.01178780  0.00693552    -0.21800
C17         C  0.47438899  0.38230085  0.00028196    -0.22900
C18         C  0.01402995  0.38639437  0.97189115    -0.22900
C19         C  0.48405499  0.11037484  0.99407822    -0.22900
C20         C  0.02114386  0.10678989  0.97989637    -0.22900
C21         C  0.42994197  0.43170189  0.01164010    -0.18200
C22         C  0.43436753  0.06556057  0.00361161    -0.18200
C23         C  0.06757178  0.05995939  0.99151363    -0.18200
C24         C  0.06205024  0.42885149  0.98907628    -0.18200
H25         H  0.36371820  0.46732528  0.02992894     0.14700
H26         H  0.36768977  0.03511389  0.02660677     0.14700
H27         H  0.12943765  0.45511563  0.01262107     0.14700
H28         H  0.13366299  0.02875132  0.01290273     0.14700
H29         H  0.45581405  0.35965982  0.99726635     0.13000
H30         H  0.03073320  0.36329133  0.96534520     0.13000
H31         H  0.46822922  0.13372000  0.98715750     0.13000
H32         H  0.03878511  0.12976283  0.97485094     0.13000
H33         H  0.46868208  0.99951565  0.98936965     0.26200
H34         H  0.03124219  0.99378925  0.98042350     0.26200
N35         N  0.06021275  0.49202171  0.24297124    -0.36600
N36         N  0.50667732  0.04824987  0.25715314    -0.57100
N37         N  0.44401331  0.49561487  0.25598410    -0.36500
N38         N  0.49856884  0.43851753  0.24962173    -0.57100
C39         C  0.07629321  0.02372173  0.23340712     0.27000
C40         C  0.08097980  0.46190705  0.23857746     0.27000
C41         C  0.42990630  0.02462244  0.25035908     0.27000
C42         C  0.42283532  0.46699351  0.24818092     0.27000
C43         C  0.03071223  0.07166096  0.24693675     0.35600
C44         C  0.47777038  0.07094195  0.26033227     0.35700
C45         C  0.03288817  0.41487299  0.24632941     0.35600
C46         C  0.46858783  0.41750689  0.25370083     0.35700
C47         C  0.10947851  0.01285885  0.22113852    -0.21800
C48         C  0.11569963  0.47226099  0.22932342    -0.21800
C49         C  0.39660382  0.01478096  0.23862914    -0.21800
C50         C  0.38921435  0.47962675  0.23909596    -0.21800
C51         C  0.02094059  0.10646380  0.25638962    -0.22900
C52         C  0.48940748  0.10585480  0.26742509    -0.22900
C53         C  0.02069142  0.38048777  0.25480961    -0.22900
C54         C  0.47854080  0.38182824  0.25994063    -0.22900
C55         C  0.06664506  0.06035076  0.23990779    -0.18200
C56         C  0.06985485  0.42546709  0.24405861    -0.18200
C57         C  0.43235993  0.42970915  0.25054142    -0.18200
C58         C  0.44116186  0.06102503  0.25534587    -0.18200
H59         H  0.13156332  0.03024822  0.21347060     0.14700
H60         H  0.13859341  0.45461425  0.22415505     0.14700
H61         H  0.37546331  0.03278419  0.23075432     0.14700
H62         H  0.36631691  0.46350587  0.23174330     0.14700
H63         H  0.03872231  0.12939719  0.26072294     0.13000
H64         H  0.47283117  0.12993931  0.27110542     0.13000
H65         H  0.03684103  0.35765432  0.26232180     0.13000
H66         H  0.46076943  0.35869297  0.26405127     0.13000
H67         H  0.03461571  0.49258644  0.25311159     0.26200
H68         H  0.46885189  0.49410155  0.26667374     0.26200
O69         O  0.20803687  0.24416847  0.06728989    -0.78400
C70         C  0.17268849  0.31740704  0.99750808     0.82600
O71         O  0.20160310  0.18229088  0.48063194    -0.79600
O72         O  0.25208210  0.29108147  0.43177818    -0.81000
O73         O  0.31972290  0.29264915  0.02637219    -0.80800
O74         O  0.26827666  0.24108527  0.07201815    -0.79500
Zn75       Zn  0.20001252  0.24506227  0.02284248     1.55700
O76         O  0.29467434  0.33364432  0.48753345    -0.80900
Cd77       Cd  0.28779786  0.24545923  0.02889178     1.59700
Cd78       Cd  0.24749007  0.21459461  0.47416806     1.59600
O79         O  0.32073271  0.20084347  0.01959587    -0.80800
O80         O  0.24566579  0.25804252  0.50120112    -1.91400
Cd81       Cd  0.24959131  0.30306694  0.47656211     1.59900
O82         O  0.29332085  0.18333209  0.48281082    -0.80800
O83         O  0.20413897  0.33502313  0.48269052    -0.79500
C84         C  0.17783021  0.17262722  0.99403738     0.83100
C85         C  0.23621181  0.24191184  0.08334273     0.82700
O86         O  0.16770421  0.28859510  0.01302156    -0.78400
C87         C  0.31957663  0.33038745  0.50674507     0.83500
O88         O  0.17330980  0.19879989  0.01243744    -0.78500
C89         C  0.31833623  0.18532509  0.50212461     0.83700
C90         C  0.25055176  0.26140298  0.41708427     0.84000
O91         O  0.24858364  0.23027914  0.42980043    -0.80900
O92         O  0.22629860  0.24175289  0.17975177    -0.78400
C93         C  0.18014643  0.16948116  0.24600622     0.82600
O94         O  0.20553393  0.31582791  0.26935317    -0.79600
O95         O  0.24804822  0.20737468  0.31916871    -0.81000
O96         O  0.33117349  0.19803945  0.23532152    -0.80800
O97         O  0.28684446  0.23914333  0.18102971    -0.79500
Zn98       Zn  0.21048231  0.24222109  0.22325111     1.55700
O99         O  0.29823823  0.16504431  0.26749868    -0.80900
Cd100      Cd  0.29792925  0.24192707  0.22557115     1.59700
Cd101      Cd  0.25115488  0.28426656  0.27710453     1.59600
O102        O  0.32636348  0.28989317  0.23244038    -0.80800
O103        O  0.25199628  0.24104286  0.24977149    -1.91400
Cd104      Cd  0.25118224  0.19555113  0.27427025     1.59900
O105        O  0.29609752  0.31755102  0.26938202    -0.80800
O106        O  0.20634369  0.16429100  0.26376401    -0.79500
C107        C  0.18086216  0.31355801  0.24983211     0.83100
C108        C  0.25731934  0.23993707  0.16666240     0.82700
O109        O  0.17844220  0.19803324  0.22988455    -0.78400
C110        C  0.32713261  0.17006180  0.25190542     0.83500
O111        O  0.18027664  0.28739941  0.23110176    -0.78500
C112        C  0.32248034  0.31638295  0.25062163     0.83700
C113        C  0.24873473  0.23701658  0.33398972     0.84000
O114        O  0.25033444  0.26824750  0.32140042    -0.80900
C115        C  0.25090037  0.26389766  0.38435188    -0.16400
C116        C  0.24793346  0.23441813  0.36673187    -0.31600
H117        H  0.25352568  0.29090749  0.37451478     0.12600
H118        H  0.24533437  0.20739547  0.37655201     0.13200
C119        C  0.23142945  0.24073213  0.11599481    -0.16400
C120        C  0.26024221  0.23907230  0.13398819    -0.31600
H121        H  0.20398853  0.24207979  0.12534093     0.12600
H122        H  0.28757585  0.23775931  0.12441278     0.13200
C123        C  0.12473593  0.39802957  0.26792917    -0.13300
C124        C  0.09827543  0.39668934  0.24582453     0.08900
C125        C  0.09902579  0.36801574  0.22515305    -0.13300
C126        C  0.12565173  0.34089915  0.22663551    -0.13300
C127        C  0.15229827  0.34208925  0.24869597     0.08900
C128        C  0.15157300  0.37099886  0.26933717    -0.13300
H129        H  0.12456367  0.42002321  0.28404681     0.12800
H130        H  0.07894992  0.36671093  0.20782384     0.12800
H131        H  0.12545924  0.31911486  0.21035411     0.12800
H132        H  0.17172905  0.37276562  0.28656741     0.12800
C133        C  0.40070291  0.37746743  0.22582047    -0.13300
C134        C  0.40285543  0.40196108  0.24967884     0.08900
C135        C  0.37767463  0.39921502  0.27330248    -0.13300
C136        C  0.35115475  0.37175889  0.27342506    -0.13300
C137        C  0.34949345  0.34648551  0.24994225     0.08900
C138        C  0.37429491  0.34991756  0.22595964    -0.13300
H139        H  0.41983091  0.37941335  0.20733181     0.12800
H140        H  0.37903870  0.41793985  0.29188799     0.12800
H141        H  0.33244061  0.36987524  0.29218556     0.12800
H142        H  0.37346000  0.33115797  0.20737639     0.12800
C143        C  0.41247387  0.11614608  0.23219348    -0.13300
C144        C  0.41285303  0.09003738  0.25495682     0.08900
C145        C  0.38524881  0.09049960  0.27684476    -0.13300
C146        C  0.35742956  0.11651035  0.27588803    -0.13300
C147        C  0.35681114  0.14268336  0.25306495     0.08900
C148        C  0.38477073  0.14235380  0.23131290    -0.13300
H149        H  0.43340272  0.11592892  0.21497290     0.12800
H150        H  0.38514364  0.07046176  0.29453474     0.12800
H151        H  0.33644538  0.11616519  0.29305547     0.12800
H152        H  0.38495601  0.16202815  0.21336661     0.12800
C153        C  0.12317909  0.08533729  0.26208889    -0.13300
C154        C  0.09614824  0.08802213  0.24060485     0.08900
C155        C  0.09677675  0.11744104  0.22065066    -0.13300
C156        C  0.12397989  0.14409934  0.22242358    -0.13100
C157        C  0.15112186  0.14153104  0.24404172     0.08900
C158        C  0.15044471  0.11178438  0.26378282    -0.13300
H159        H  0.12291193  0.06286080  0.27773277     0.12800
H160        H  0.07604272  0.11984745  0.20392745     0.12800
H161        H  0.12380128  0.16662537  0.20684735     0.12800
H162        H  0.17085411  0.10902920  0.28071933     0.12800
C163        C  0.11285481  0.34443898  0.01405555    -0.13300
C164        C  0.14324881  0.34469063  0.99471776     0.08900
C165        C  0.14574890  0.37179879  0.97260338    -0.13300
C166        C  0.12175878  0.41343333  0.47379618    -0.13300
C167        C  0.08916071  0.39884735  0.99015474     0.08900
C168        C  0.08607519  0.37143787  0.01185256    -0.13300
H169        H  0.11018367  0.32389898  0.03124618     0.12800
H170        H  0.16862300  0.37250651  0.95712956     0.12800
H171        H  0.12481191  0.43572499  0.45813569     0.12800
H172        H  0.06325342  0.37140246  0.02739171     0.12800
C173        C  0.37559982  0.41455862  0.48809289    -0.13300
C174        C  0.40296577  0.41315523  0.50935997     0.08900
C175        C  0.39749563  0.37844070  0.03567232    -0.13300
C176        C  0.37541896  0.35794668  0.52980558    -0.13300
C177        C  0.34811106  0.35907478  0.50822763     0.08900
C178        C  0.34845134  0.38787196  0.48753529    -0.13300
H179        H  0.37550028  0.43623324  0.47172546     0.12800
H180        H  0.41714401  0.37852164  0.05334905     0.12800
H181        H  0.36972423  0.33094512  0.05257737     0.12800
H182        H  0.32789470  0.38966190  0.47063342     0.12800
C183        C  0.40503831  0.12318302  0.02264342    -0.13300
C184        C  0.40108129  0.10188661  0.50396729     0.08900
C185        C  0.37462219  0.10157672  0.48184620    -0.13300
C186        C  0.34780036  0.12870322  0.48116728    -0.13300
C187        C  0.34696843  0.15671305  0.50260803     0.08900
C188        C  0.37363038  0.15693328  0.52470410    -0.13300
H189        H  0.42559300  0.12499795  0.03956474     0.12800
H190        H  0.37486747  0.08037470  0.46504817     0.12800
H191        H  0.32774801  0.12773444  0.46381965     0.12800
H192        H  0.37818380  0.17175168  0.03773134     0.12800
C193        C  0.10049410  0.10999719  0.01750403    -0.13300
C194        C  0.09660015  0.08810093  0.99224133     0.08900
C195        C  0.11186984  0.10976642  0.47287636    -0.13300
C196        C  0.13957742  0.13597444  0.47282892    -0.13300
C197        C  0.15033876  0.14305046  0.99341423     0.08900
C198        C  0.12707360  0.13729781  0.01807806    -0.13300
H199        H  0.08277375  0.10602375  0.03668702     0.12800
H200        H  0.10806184  0.09286923  0.45341693     0.12800
H201        H  0.15658678  0.13917158  0.45313955     0.12800
H202        H  0.12946896  0.15388072  0.03787492     0.12800
N203        N  0.44072061  0.00685286  0.50305603    -0.36600
N204        N  0.99640590  0.44845470  0.48599233    -0.57100
N205        N  0.05339403  0.00948719  0.49705035    -0.36500
N206        N  0.99598649  0.06373780  0.50198685    -0.57100
C207        C  0.42216934  0.47789733  0.51561704     0.27000
C208        C  0.41946393  0.03637416  0.50875106     0.27000
C209        C  0.07086235  0.47543707  0.49763653     0.27000
C210        C  0.07302484  0.03980918  0.50298248     0.27000
C211        C  0.46792078  0.43061483  0.50085066     0.35600
C212        C  0.02673145  0.42837183  0.48125585     0.35700
C213        C  0.46664978  0.08413746  0.50203447     0.35600
C214        C  0.02445649  0.08614185  0.49608236     0.35700
C215        C  0.38876425  0.48840753  0.52769112    -0.21800
C216        C  0.38520108  0.02498954  0.51822359    -0.21800
C217        C  0.10232069  0.48596558  0.51205631    -0.21800
C218        C  0.10736554  0.02992319  0.51252018    -0.21800
C219        C  0.47748646  0.39630083  0.49023944    -0.22900
C220        C  0.01771737  0.39439775  0.46979646    -0.22900
C221        C  0.47844865  0.11890294  0.49435249    -0.22900
C222        C  0.01219478  0.12100880  0.48961408    -0.22900
C223        C  0.43214126  0.44134866  0.50905049    -0.18200
C224        C  0.42986243  0.07325085  0.50452326    -0.18200
C225        C  0.06136766  0.07613042  0.49860707    -0.18200
C226        C  0.06184232  0.43907655  0.49007960    -0.18200
H227        H  0.36673967  0.47080655  0.53514305     0.14700
H228        H  0.36213437  0.04197499  0.52432347     0.14700
H229        H  0.12316856  0.46837686  0.52096236     0.14700
H230        H  0.12945250  0.04790506  0.51863397     0.14700
H231        H  0.45963153  0.37339252  0.48598465     0.13000
H232        H  0.03600514  0.37215171  0.46419397     0.13000
H233        H  0.46201022  0.14204689  0.48792959     0.13000
H234        H  0.02846494  0.14492571  0.48442974     0.13000
H235        H  0.46611612  0.00706465  0.49253294     0.26200
H236        H  0.02854955  0.00886578  0.48634333     0.26200
N237        N  0.05823623  0.50603882  0.74022019    -0.36600
N238        N  0.50129493  0.06257102  0.75099005    -0.57100
N239        N  0.44452544  0.50493828  0.76055346    -0.36500
N240        N  0.49975479  0.44782454  0.75552099    -0.57100
C241        C  0.07516013  0.03398199  0.73480439     0.27000
C242        C  0.07912672  0.47633844  0.73434869     0.27000
C243        C  0.42650059  0.03463159  0.74427931     0.27000
C244        C  0.42376042  0.47549820  0.75406245     0.27000
C245        C  0.02699504  0.08028115  0.74516384     0.35600
C246        C  0.47122949  0.08333753  0.75506572     0.35700
C247        C  0.03484166  0.42881091  0.75038082     0.35600
C248        C  0.47015167  0.42696003  0.76152575     0.35700
C249        C  0.11006421  0.02399448  0.72575080    -0.21800
C250        C  0.11165985  0.48723642  0.72105328    -0.21800
C251        C  0.39468768  0.02235833  0.73138382    -0.21800
C252        C  0.39030056  0.48702348  0.74373169    -0.21800
C253        C  0.01517138  0.11418002  0.75513059    -0.22900
C254        C  0.48084122  0.11832486  0.76384723    -0.22900
C255        C  0.02554738  0.39477509  0.76170352    -0.22900
C256        C  0.48075253  0.39169220  0.76862328    -0.22900
C257        C  0.06377997  0.07037509  0.74036268    -0.18200
C258        C  0.07052477  0.44008118  0.74272626    -0.18200
C259        C  0.43368583  0.43851966  0.75825717    -0.18200
C260        C  0.43552661  0.07164250  0.74888315    -0.18200
H261        H  0.13274349  0.04189095  0.72046640     0.14700
H262        H  0.13419719  0.46998827  0.71413133     0.14700
H263        H  0.37348143  0.03874824  0.72160221     0.14700
H264        H  0.36776355  0.47012327  0.73679516     0.14700
H265        H  0.03171420  0.13733783  0.76143645     0.13000
H266        H  0.46288521  0.14108777  0.76869433     0.13000
H267        H  0.04370751  0.37265746  0.76741457     0.13000
H268        H  0.46337487  0.36868478  0.77413684     0.13000
H269        H  0.03476586  0.50648166  0.75341372     0.26200
H270        H  0.46919382  0.50442530  0.77155558     0.26200
O271        O  0.20807815  0.25880455  0.56770445    -0.78400
C272        C  0.17476383  0.33026033  0.49758674     0.82600
O273        O  0.20532940  0.17135221  0.97636793    -0.79600
O274        O  0.25371381  0.28572335  0.93357380    -0.81000
O275        O  0.32054555  0.30311222  0.52435347    -0.80800
O276        O  0.26829550  0.25589761  0.57241936    -0.79500
Zn277      Zn  0.19997251  0.25819080  0.52374798     1.55700
O278        O  0.29238196  0.32478493  0.99123712    -0.80900
Cd279      Cd  0.28752041  0.25708114  0.52903542     1.59700
Cd280      Cd  0.25021940  0.20562574  0.97148122     1.59600
O281        O  0.31932992  0.21118695  0.52114296    -0.80800
O282        O  0.24619253  0.24690459  0.00078843    -1.91400
Cd283      Cd  0.24917444  0.29356430  0.97843748     1.59900
O284        O  0.29684434  0.17465500  0.97959508    -0.80800
O285        O  0.20269028  0.32349034  0.98393615    -0.79500
C286        C  0.17398521  0.18598995  0.49789838     0.83100
C287        C  0.23623103  0.25733637  0.58371563     0.82700
O288        O  0.16972662  0.30208120  0.51371994    -0.78400
C289        C  0.31757809  0.32103569  0.01003964     0.83500
O290        O  0.17058780  0.21332547  0.51520941    -0.78500
C291        C  0.32108078  0.17605412  0.99963886     0.83700
C292        C  0.25289266  0.25759423  0.91709314     0.84000
O293        O  0.25134842  0.22525512  0.92780690    -0.80900
O294        O  0.22490674  0.25575043  0.67957688    -0.78400
C295        C  0.17583393  0.18172478  0.74464951     0.82600
O296        O  0.20356785  0.32766726  0.77005926    -0.79600
O297        O  0.24784928  0.21449140  0.81638003    -0.81000
O298        O  0.32736995  0.20976485  0.73256362    -0.80800
O299        O  0.28549141  0.25745790  0.68152567    -0.79500
Zn300      Zn  0.20781403  0.25458980  0.72269835     1.55700
O301        O  0.29285911  0.17463270  0.76192887    -0.80900
Cd302      Cd  0.29566032  0.25536005  0.72594391     1.59700
Cd303      Cd  0.24859243  0.29479795  0.77839700     1.59600
O304        O  0.32575411  0.30102799  0.73607790    -0.80800
O305        O  0.24920278  0.25314941  0.74933848    -1.91400
Cd306      Cd  0.24793804  0.20614202  0.77146467     1.59900
O307        O  0.29461358  0.32791033  0.77283687    -0.80800
O308        O  0.20223103  0.17632873  0.76206259    -0.79500
C309        C  0.17978293  0.32658131  0.74965707     0.83100
C310        C  0.25621959  0.25705224  0.66689098     0.82700
O311        O  0.17436582  0.21028761  0.72842673    -0.78400
C312        C  0.32198767  0.18023490  0.74691912     0.83500
O313        O  0.17905921  0.30064598  0.73070597    -0.78500
C314        C  0.32194004  0.32671156  0.75496078     0.83700
C315        C  0.24803527  0.24271182  0.83281336     0.84000
O316        O  0.24781049  0.27510529  0.82210145    -0.80900
C317        C  0.25305811  0.26374503  0.88471741    -0.16400
C318        C  0.24868770  0.23657689  0.86516867    -0.31600
H319        H  0.25593018  0.29168867  0.87682466     0.12600
H320        H  0.24591449  0.20862662  0.87306696     0.13200
C321        C  0.23119591  0.25721528  0.61623773    -0.16400
C322        C  0.25979278  0.25787420  0.63435923    -0.31600
H323        H  0.20362060  0.25657742  0.62537667     0.12600
H324        H  0.28727062  0.25879493  0.62502761     0.13200
C325        C  0.12421265  0.41173098  0.76722726    -0.13300
C326        C  0.10005576  0.41244056  0.74345439     0.08900
C327        C  0.10249315  0.38537257  0.72149057    -0.13300
C328        C  0.12849770  0.35761191  0.72346542    -0.13300
C329        C  0.15246857  0.35633732  0.74754281     0.08900
C330        C  0.15021640  0.38392321  0.76928113    -0.13300
H331        H  0.12240808  0.43232001  0.78447728     0.12800
H332        H  0.08390888  0.38551467  0.70305874     0.12800
H333        H  0.12965284  0.33701846  0.70619736     0.12800
H334        H  0.16826925  0.38381859  0.78804974     0.12800
C335        C  0.40484684  0.38393485  0.73472681    -0.13300
C336        C  0.40461337  0.41023468  0.75736747     0.08900
C337        C  0.37670862  0.40954851  0.77902698    -0.13300
C338        C  0.34964070  0.38258248  0.77826005    -0.13300
C339        C  0.35011833  0.35579189  0.75583500     0.08900
C340        C  0.37798442  0.35692504  0.73401027    -0.13300
H341        H  0.42598107  0.38428740  0.71766743     0.12800
H342        H  0.37607831  0.42976556  0.79660506     0.12800
H343        H  0.32854874  0.38253854  0.79533607     0.12800
H344        H  0.37906342  0.33693383  0.71628043     0.12800
C345        C  0.40748638  0.12753719  0.72681119    -0.13300
C346        C  0.40601237  0.09909022  0.74762839     0.08900
C347        C  0.37640825  0.09678049  0.76757216    -0.13300
C348        C  0.34878764  0.12285920  0.76699371    -0.13300
C349        C  0.35047924  0.15185893  0.74657505     0.08900
C350        C  0.37999396  0.15385900  0.72636692    -0.13300
H351        H  0.43006333  0.12944752  0.71111140     0.12800
H352        H  0.37493466  0.07493977  0.78377465     0.12800
H353        H  0.32644493  0.12064426  0.78288351     0.12800
H354        H  0.38187370  0.17576960  0.71026568     0.12800
C355        C  0.11836081  0.09862933  0.76364468    -0.13300
C356        C  0.09202309  0.09946751  0.74150516     0.08900
C357        C  0.09283645  0.12778595  0.72047642    -0.13300
C358        C  0.11981550  0.15484157  0.72152174    -0.13100
C359        C  0.14651564  0.15384974  0.74354472     0.08900
C360        C  0.14538058  0.12544187  0.76461587    -0.13300
H361        H  0.11802685  0.07706561  0.78011481     0.12800
H362        H  0.07269498  0.12875760  0.70319034     0.12800
H363        H  0.12000634  0.17625647  0.70494437     0.12800
H364        H  0.16539361  0.12390030  0.78196629     0.12800
C365        C  0.11432863  0.35552838  0.51396731    -0.13300
C366        C  0.14577644  0.35805409  0.49584544     0.08900
C367        C  0.14919744  0.38728841  0.47574675    -0.13300
C368        C  0.11887648  0.39852480  0.97028228    -0.13300
C369        C  0.09054725  0.41088658  0.49195945     0.08900
C370        C  0.08695108  0.38184069  0.51208176    -0.13300
H371        H  0.11093432  0.33334458  0.52967254     0.12800
H372        H  0.17300488  0.38991232  0.46140062     0.12800
H373        H  0.12152487  0.41937755  0.95332287     0.12800
H374        H  0.06300548  0.37968191  0.52634301     0.12800
C375        C  0.37397760  0.40427352  0.99037308    -0.13300
C376        C  0.39967153  0.40473249  0.01299122     0.08900
C377        C  0.40264771  0.38481123  0.53035227    -0.13300
C378        C  0.37053452  0.35131677  0.03515485    -0.13300
C379        C  0.34522266  0.35038370  0.01206338     0.08900
C380        C  0.34696090  0.37752824  0.98997086    -0.13300
H381        H  0.37536064  0.42424003  0.97264493     0.12800
H382        H  0.42357312  0.38344509  0.54699149     0.12800
H383        H  0.37586423  0.33625052  0.54613077     0.12800
H384        H  0.32794965  0.37763247  0.97184105     0.12800
C385        C  0.40031303  0.12972131  0.52542376    -0.13300
C386        C  0.40562373  0.09423793  0.00220545     0.08900
C387        C  0.37840020  0.09233696  0.98069905    -0.13300
C388        C  0.35106094  0.11897624  0.97963616    -0.13300
C389        C  0.35039853  0.14804484  0.00011789     0.08900
C390        C  0.37782099  0.14983180  0.02157453    -0.13300
H391        H  0.42045701  0.13034453  0.54272423     0.12800
H392        H  0.37834737  0.07016260  0.96474970     0.12800
H393        H  0.33035555  0.11667755  0.96288803     0.12800
H394        H  0.37380827  0.17803560  0.54157035     0.12800
C395        C  0.09459993  0.12714883  0.52307381    -0.13300
C396        C  0.08937501  0.10519122  0.49802382     0.08900
C397        C  0.11993616  0.09336537  0.96767233    -0.13300
C398        C  0.14672107  0.12060968  0.96826640    -0.13300
C399        C  0.14497844  0.15805167  0.49790818     0.08900
C400        C  0.12213568  0.15350328  0.52299385    -0.13300
H401        H  0.07760386  0.12355189  0.54273163     0.12800
H402        H  0.11712459  0.07662689  0.94800094     0.12800
H403        H  0.16417045  0.12452006  0.94891974     0.12800
H404        H  0.12588439  0.16999513  0.54268660     0.12800
N405        N  0.44267100  0.49741091  0.00480939    -0.36600
N406        N  0.99861299  0.93840391  0.99564996    -0.57100
N407        N  0.05488471  0.49588009  0.99060466    -0.36500
N408        N  0.00138123  0.55309984  0.00024077    -0.57100
C409        C  0.42371000  0.96937057  0.00761528     0.27000
C410        C  0.42312398  0.52857228  0.00815708     0.27000
C411        C  0.07552446  0.96371036  0.99829296     0.27000
C412        C  0.07649454  0.52428255  0.99822303     0.27000
C413        C  0.46979357  0.92236310  0.99423146     0.35600
C414        C  0.02765348  0.91670220  0.99007595     0.35700
C415        C  0.47213517  0.57333453  0.99568535     0.35600
C416        C  0.03098768  0.57388427  0.99372896     0.35700
C417        C  0.39008488  0.98023818  0.01905547    -0.21800
C418        C  0.38847661  0.52016054  0.01880911    -0.21800
C419        C  0.10965850  0.97424621  0.00802796    -0.21800
C420        C  0.10962013  0.51121068  0.00801107    -0.21800
C421        C  0.48002886  0.88922919  0.98170401    -0.22900
C422        C  0.01623010  0.88201711  0.98193974    -0.22900
C423        C  0.48456494  0.60729320  0.98635970    -0.22900
C424        C  0.02037055  0.60934062  0.98733490    -0.22900
C425        C  0.43374907  0.93281855  0.00125813    -0.18200
C426        C  0.43515596  0.56423778  0.00068993    -0.18200
C427        C  0.06754108  0.56169446  0.99528460    -0.18200
C428        C  0.06425399  0.92708210  0.99421226    -0.18200
H429        H  0.36770399  0.96290607  0.02618472     0.14700
H430        H  0.36636655  0.53895089  0.02355164     0.14700
H431        H  0.13166067  0.95670969  0.01499283     0.14700
H432        H  0.13261773  0.52703453  0.01555875     0.14700
H433        H  0.46238604  0.86759725  0.97401018     0.13000
H434        H  0.03303182  0.85863939  0.97631316     0.13000
H435        H  0.46849599  0.63095241  0.98055957     0.13000
H436        H  0.03761578  0.63222137  0.98123583     0.13000
H437        H  0.46772466  0.49500693  0.99403673     0.26200
H438        H  0.03028163  0.49782856  0.97959889     0.26200
N439        N  0.05638374  0.99386701  0.24070774    -0.36600
N440        N  0.50131432  0.55085308  0.25486062    -0.57100
N441        N  0.44857171  0.99424740  0.25790055    -0.36500
N442        N  0.50210166  0.93576400  0.25964289    -0.57100
C443        C  0.08127316  0.52139001  0.23639898     0.27000
C444        C  0.07653472  0.96414971  0.23336070     0.27000
C445        C  0.42435550  0.52634673  0.25167722     0.27000
C446        C  0.42754564  0.96518423  0.25094634     0.27000
C447        C  0.03432758  0.56978911  0.24323395     0.35600
C448        C  0.47258354  0.57189981  0.26279095     0.35700
C449        C  0.03065553  0.91637605  0.24579170     0.35600
C450        C  0.47135600  0.91575474  0.26318282     0.35700
C451        C  0.11587561  0.50981507  0.22793770    -0.21800
C452        C  0.10964873  0.97524384  0.22115576    -0.21800
C453        C  0.39020452  0.51710898  0.24119495    -0.21800
C454        C  0.39514868  0.97726180  0.23892476    -0.21800
C455        C  0.02346586  0.60472965  0.25135206    -0.22900
C456        C  0.48445250  0.60566386  0.27279881    -0.22900
C457        C  0.02035917  0.88162839  0.25486971    -0.22900
C458        C  0.47992192  0.88045360  0.27179961    -0.22900
C459        C  0.07082209  0.55837452  0.23973654    -0.18200
C460        C  0.06685877  0.92741849  0.23937458    -0.18200
C461        C  0.43590251  0.92815916  0.25666031    -0.18200
C462        C  0.43583480  0.56232847  0.25830897    -0.18200
H463        H  0.13896360  0.52669469  0.22164070     0.14700
H464        H  0.13183427  0.95802524  0.21345221     0.14700
H465        H  0.36817867  0.53542232  0.23569841     0.14700
H466        H  0.37263815  0.96077793  0.23132684     0.14700
H467        H  0.04063690  0.62773055  0.25690706     0.13000
H468        H  0.46792015  0.62844615  0.28033314     0.13000
H469        H  0.03781492  0.85847015  0.25918632     0.13000
H470        H  0.46132259  0.85802750  0.27608729     0.13000
H471        H  0.03265073  0.99384341  0.25361310     0.26200
H472        H  0.47222357  0.99356190  0.27025087     0.26200
O473        O  0.21408609  0.74380053  0.06502487    -0.78400
C474        C  0.17676771  0.81753178  0.99758420     0.82600
O475        O  0.20255964  0.68090686  0.47912169    -0.79600
O476        O  0.24838948  0.79289028  0.43144429    -0.81000
O477        O  0.32529529  0.79299551  0.02047043    -0.80800
O478        O  0.27440497  0.74375130  0.06968078    -0.79500
Zn479      Zn  0.20492169  0.74489542  0.02098334     1.55700
O480        O  0.29425723  0.83269030  0.48526390    -0.80900
Cd481      Cd  0.29254402  0.74670058  0.02572085     1.59700
Cd482      Cd  0.24809475  0.71425526  0.47248222     1.59600
O483        O  0.32486216  0.70186076  0.01632435    -0.80800
O484        O  0.24518393  0.75732598  0.49995806    -1.91400
Cd485      Cd  0.24831996  0.80308706  0.47619728     1.59900
O486        O  0.29424840  0.68272117  0.48181288    -0.80800
O487        O  0.20444681  0.83596318  0.48481831    -0.79500
C488        C  0.18149091  0.67225500  0.99311766     0.83100
C489        C  0.24231536  0.74316421  0.08106337     0.82700
O490        O  0.17244327  0.78821920  0.01251009    -0.78400
C491        C  0.32010739  0.82894442  0.50347252     0.83500
O492        O  0.17771340  0.69909886  0.01093168    -0.78500
C493        C  0.31793527  0.68449659  0.50230814     0.83700
C494        C  0.24811596  0.76370814  0.41613740     0.84000
O495        O  0.24840225  0.73200778  0.42816515    -0.80900
O496        O  0.22902107  0.74317024  0.17715897    -0.78400
C497        C  0.18075258  0.67110162  0.24405924     0.82600
O498        O  0.20344306  0.81929940  0.26445315    -0.79600
O499        O  0.24438376  0.71255320  0.31790546    -0.81000
O500        O  0.33004295  0.70136339  0.23681073    -0.80800
O501        O  0.28947330  0.74219937  0.18039030    -0.79500
Zn502      Zn  0.21044302  0.74408413  0.22021214     1.55700
O503        O  0.29605722  0.66975929  0.26910887    -0.80900
Cd504      Cd  0.29775167  0.74506793  0.22542584     1.59700
Cd505      Cd  0.24861437  0.78836675  0.27502121     1.59600
O506        O  0.32660100  0.79220948  0.23350978    -0.80800
O507        O  0.25070475  0.74470349  0.24814413    -1.91400
Cd508      Cd  0.24922519  0.70019828  0.27360836     1.59900
O509        O  0.29428447  0.82123349  0.26853434    -0.80800
O510        O  0.20586699  0.66780143  0.26300494    -0.79500
C511        C  0.17926587  0.81634847  0.24452845     0.83100
C512        C  0.26070596  0.74214700  0.16503623     0.82700
O513        O  0.17924284  0.69862734  0.22670316    -0.78400
C514        C  0.32534800  0.67410073  0.25402590     0.83500
O515        O  0.17904171  0.78942238  0.22643104    -0.78500
C516        C  0.32206606  0.81904057  0.25122332     0.83700
C517        C  0.24436705  0.74217704  0.33262197     0.84000
O518        O  0.24591898  0.77340036  0.31993071    -0.80900
C519        C  0.24745938  0.76766443  0.38349488    -0.16400
C520        C  0.24325638  0.73901703  0.36530961    -0.31600
H521        H  0.25049281  0.79495187  0.37423926     0.12600
H522        H  0.24013485  0.71179805  0.37467085     0.13200
C523        C  0.23706235  0.74209788  0.11369554    -0.16400
C524        C  0.26521385  0.74131911  0.13236918    -0.31600
H525        H  0.20934367  0.74258538  0.12252789     0.12600
H526        H  0.29288647  0.74077386  0.12343195     0.13200
C527        C  0.12345711  0.90144309  0.26119212    -0.13300
C528        C  0.09629162  0.89943433  0.23972975     0.08900
C529        C  0.09683205  0.87040826  0.21931906    -0.13300
C530        C  0.12383899  0.84344556  0.22069673    -0.13300
C531        C  0.15083324  0.84508756  0.24250813     0.08900
C532        C  0.15043424  0.87459981  0.26258059    -0.13300
H533        H  0.12346296  0.92363069  0.27713201     0.12800
H534        H  0.07613921  0.86851414  0.20251941     0.12800
H535        H  0.12344152  0.82123678  0.20480136     0.12800
H536        H  0.17083079  0.87686232  0.27958231     0.12800
C537        C  0.40719113  0.87369644  0.23279006    -0.13300
C538        C  0.40607321  0.90083580  0.25476048     0.08900
C539        C  0.37650729  0.90200260  0.27486317    -0.13300
C540        C  0.34877241  0.87586776  0.27341284    -0.13300
C541        C  0.35025062  0.84802607  0.25188020     0.08900
C542        C  0.37960503  0.84747884  0.23139124    -0.13300
H543        H  0.42963042  0.87268364  0.21690018     0.12800
H544        H  0.37516119  0.92295310  0.29184801     0.12800
H545        H  0.32651545  0.87712571  0.28944521     0.12800
H546        H  0.38145939  0.82659973  0.21438318     0.12800
C547        C  0.41101999  0.62017695  0.23742722    -0.13300
C548        C  0.40831477  0.59194086  0.25836988     0.08900
C549        C  0.37892090  0.59140871  0.27862021    -0.13300
C550        C  0.35210990  0.61840949  0.27750761    -0.13300
C551        C  0.35446619  0.64647360  0.25622448     0.08900
C552        C  0.38445903  0.64733724  0.23646441    -0.13300
H553        H  0.43350155  0.62085180  0.22156450     0.12800
H554        H  0.37654932  0.56980546  0.29496849     0.12800
H555        H  0.32942515  0.61713554  0.29313919     0.12800
H556        H  0.38704773  0.66856717  0.21982721     0.12800
C557        C  0.12325531  0.58863912  0.26422323    -0.13300
C558        C  0.09970101  0.58665754  0.24014976     0.08900
C559        C  0.10289260  0.61227656  0.21709935    -0.13300
C560        C  0.12923448  0.63985267  0.21826450    -0.13100
C561        C  0.15280585  0.64207064  0.24247785     0.08900
C562        C  0.14962652  0.61605109  0.26537419    -0.13300
H563        H  0.12089898  0.56916571  0.28225599     0.12800
H564        H  0.08481836  0.61099249  0.19836129     0.12800
H565        H  0.13121395  0.65933381  0.20022796     0.12800
H566        H  0.16727001  0.61708862  0.28439080     0.12800
C567        C  0.11826279  0.84394132  0.01714924    -0.13300
C568        C  0.14719139  0.84465547  0.99639182     0.08900
C569        C  0.14804233  0.87198268  0.97444655    -0.13300
C570        C  0.12294898  0.91567500  0.47859537    -0.13300
C571        C  0.09237120  0.89810396  0.99465057     0.08900
C572        C  0.09115971  0.87067519  0.01640589    -0.13300
H573        H  0.11697216  0.82319276  0.03426330     0.12800
H574        H  0.16981732  0.87299580  0.95795729     0.12800
H575        H  0.12447627  0.93683159  0.46181076     0.12800
H576        H  0.06938604  0.87021768  0.03291209     0.12800
C577        C  0.37710849  0.91111421  0.48204778    -0.13300
C578        C  0.40307613  0.91151110  0.50443656     0.08900
C579        C  0.40804594  0.87438602  0.02174221    -0.13300
C580        C  0.37520350  0.85749172  0.52633662    -0.13300
C581        C  0.34897874  0.85708747  0.50392678     0.08900
C582        C  0.35024285  0.88421328  0.48181650    -0.13300
H583        H  0.37773025  0.93166405  0.46474654     0.12800
H584        H  0.43103920  0.87227044  0.03641256     0.12800
H585        H  0.38403489  0.82451693  0.03762181     0.12800
H586        H  0.33052863  0.88461503  0.46420019     0.12800
C587        C  0.40697995  0.62206566  0.02010154    -0.13300
C588        C  0.40118410  0.60190519  0.50927766     0.08900
C589        C  0.37497594  0.59959433  0.48697742    -0.13300
C590        C  0.34776947  0.62621265  0.48470220    -0.13300
C591        C  0.34627484  0.65569693  0.50472264     0.08900
C592        C  0.37222490  0.65746363  0.52740894    -0.13300
H593        H  0.42667138  0.62249513  0.03775156     0.12800
H594        H  0.37593211  0.57737863  0.47107498     0.12800
H595        H  0.32811507  0.62384393  0.46714038     0.12800
H596        H  0.38067630  0.67076768  0.03558606     0.12800
C597        C  0.09749201  0.61789070  0.01581446    -0.13300
C598        C  0.09762471  0.58929064  0.99506596     0.08900
C599        C  0.12195617  0.59797840  0.47512346    -0.13300
C600        C  0.14910588  0.62488176  0.47594425    -0.13300
C601        C  0.15321940  0.64307901  0.99376305     0.08900
C602        C  0.12472439  0.64456197  0.01503783    -0.13300
H603        H  0.07599817  0.61976315  0.03249892     0.12800
H604        H  0.12471327  0.57558757  0.45950179     0.12800
H605        H  0.17228099  0.62254727  0.46089162     0.12800
H606        H  0.12334491  0.66646052  0.03120013     0.12800
N607        N  0.44193863  0.50801056  0.50861926    -0.36600
N608        N  0.99931020  0.95149632  0.49828082    -0.57100
N609        N  0.05204439  0.50542261  0.48952053    -0.36500
N610        N  0.99650652  0.56034216  0.49038154    -0.57100
C611        C  0.42045788  0.97682471  0.50911105     0.27000
C612        C  0.42139600  0.53746268  0.51596643     0.27000
C613        C  0.07468482  0.98035741  0.50310197     0.27000
C614        C  0.07130273  0.53491768  0.49842848     0.27000
C615        C  0.46803024  0.92934049  0.49965056     0.35600
C616        C  0.02953846  0.93160702  0.49253245     0.35700
C617        C  0.46748764  0.58599972  0.50641037     0.35600
C618        C  0.02598456  0.58210860  0.48622553     0.35700
C619        C  0.38584941  0.98740547  0.51854649    -0.21800
C620        C  0.38821551  0.52600530  0.52776341    -0.21800
C621        C  0.10833234  0.99236206  0.51279910    -0.21800
C622        C  0.10265759  0.52358103  0.51244540    -0.21800
C623        C  0.47900722  0.89481026  0.49044825    -0.22900
C624        C  0.02019897  0.89710362  0.48239694    -0.22900
C625        C  0.47814941  0.62151151  0.49989548    -0.22900
C626        C  0.01522212  0.61664305  0.47734581    -0.22900
C627        C  0.43150886  0.94017762  0.50442602    -0.18200
C628        C  0.43098304  0.57434381  0.51062155    -0.18200
C629        C  0.06208792  0.57168104  0.49263643    -0.18200
C630        C  0.06531483  0.94336098  0.49828625    -0.18200
H631        H  0.36324750  0.96986005  0.52479484     0.14700
H632        H  0.36583329  0.54298991  0.53543667     0.14700
H633        H  0.13138019  0.97582085  0.51910189     0.14700
H634        H  0.12366467  0.54063298  0.52182536     0.14700
H635        H  0.46187198  0.87198148  0.48439760     0.13000
H636        H  0.03836763  0.87497000  0.47623997     0.13000
H637        H  0.46093335  0.64499772  0.49615573     0.13000
H638        H  0.03240824  0.64003063  0.47257961     0.13000
H639        H  0.46582668  0.50852924  0.49604295     0.26200
H640        H  0.02978607  0.50571415  0.47549932     0.26200
N641        N  0.05487650  0.00354635  0.73962192    -0.36600
N642        N  0.50128189  0.56018711  0.75724005    -0.57100
N643        N  0.44566903  0.00592830  0.75448855    -0.36500
N644        N  0.50093992  0.95085932  0.76062151    -0.57100
C645        C  0.07711044  0.53574868  0.73092985     0.27000
C646        C  0.07653670  0.97446021  0.73371443     0.27000
C647        C  0.42474479  0.53507482  0.75412170     0.27000
C648        C  0.42632206  0.97545925  0.74837902     0.27000
C649        C  0.03032719  0.58309905  0.74267782     0.35600
C650        C  0.47229448  0.58162415  0.76376631     0.35700
C651        C  0.03017802  0.92512010  0.73876879     0.35600
C652        C  0.47108836  0.92999213  0.76570034     0.35700
C653        C  0.11037491  0.52478324  0.71885062    -0.21800
C654        C  0.11099189  0.98642601  0.72526909    -0.21800
C655        C  0.39097488  0.52459180  0.74363523    -0.21800
C656        C  0.39460420  0.98490091  0.73392647    -0.21800
C657        C  0.01963527  0.61787387  0.75150830    -0.22900
C658        C  0.48377241  0.61565626  0.77340515    -0.22900
C659        C  0.01949978  0.88960574  0.74514161    -0.22900
C660        C  0.48100616  0.89657174  0.77753129    -0.22900
C661        C  0.06653475  0.57252997  0.73578168    -0.18200
C662        C  0.06665768  0.93744181  0.73759495    -0.18200
C663        C  0.43547659  0.93973855  0.75738976    -0.18200
C664        C  0.43575012  0.57172046  0.75880361    -0.18200
H665        H  0.13181494  0.54212154  0.70995750     0.14700
H666        H  0.13444179  0.96979579  0.71950569     0.14700
H667        H  0.36901164  0.54213302  0.73661393     0.14700
H668        H  0.37334731  0.96675376  0.72640388     0.14700
H669        H  0.03680570  0.64140279  0.75537363     0.13000
H670        H  0.46697936  0.63869156  0.77995478     0.13000
H671        H  0.03672743  0.86674118  0.75083479     0.13000
H672        H  0.46332155  0.87395868  0.78348028     0.13000
H673        H  0.02943119  0.00242239  0.74983171     0.26200
H674        H  0.46810285  0.00756366  0.76824746     0.26200
O675        O  0.20913281  0.75691791  0.56677336    -0.78400
C676        C  0.17529479  0.83102369  0.49989799     0.82600
O677        O  0.20873461  0.67025208  0.97514969    -0.79600
O678        O  0.25387551  0.78637266  0.93128330    -0.81000
O679        O  0.32152091  0.80178730  0.52110478    -0.80800
O680        O  0.26951350  0.75814686  0.57069221    -0.79500
Zn681      Zn  0.19960017  0.75655596  0.52280092     1.55700
O682        O  0.29616836  0.82479687  0.98615457    -0.80900
Cd683      Cd  0.28745452  0.75711847  0.52728814     1.59700
Cd684      Cd  0.25314564  0.70576114  0.96888634     1.59600
O685        O  0.31799753  0.71051563  0.52113316    -0.80800
O686        O  0.25021415  0.74718246  0.99821628    -1.91400
Cd687      Cd  0.25189283  0.79396051  0.97597649     1.59900
O688        O  0.30083087  0.67613866  0.97611622    -0.80800
O689        O  0.20616214  0.82421155  0.98336046    -0.79500
C690        C  0.17450699  0.68371370  0.49612284     0.83100
C691        C  0.23770064  0.75784246  0.58239091     0.82700
O692        O  0.16960015  0.80172445  0.51458351    -0.78400
C693        C  0.32267348  0.82089870  0.00364894     0.83500
O694        O  0.17022635  0.71106934  0.51344034    -0.78500
C695        C  0.32519978  0.67744284  0.99607819     0.83700
C696        C  0.25309742  0.75841414  0.91468816     0.84000
O697        O  0.25257992  0.72589974  0.92518842    -0.80900
O698        O  0.22798548  0.75858424  0.67776145    -0.78400
C699        C  0.17740913  0.68470339  0.74062427     0.82600
O700        O  0.20336830  0.83013275  0.76802260    -0.79600
O701        O  0.24606315  0.71706382  0.81390828    -0.81000
O702        O  0.33038426  0.71174007  0.73408472    -0.80800
O703        O  0.28859949  0.75728825  0.67997359    -0.79500
Zn704      Zn  0.20985911  0.75762423  0.72023969     1.55700
O705        O  0.29411510  0.67740689  0.76256289    -0.80900
Cd706      Cd  0.29790281  0.75662718  0.72483479     1.59700
Cd707      Cd  0.24899465  0.79762968  0.77630243     1.59600
O708        O  0.32712199  0.80282380  0.73497792    -0.80800
O709        O  0.25065396  0.75579124  0.74733815    -1.91400
Cd710      Cd  0.24844687  0.70883752  0.76924550     1.59900
O711        O  0.29505500  0.83074829  0.77076501    -0.80800
O712        O  0.20359520  0.67908046  0.75817320    -0.79500
C713        C  0.18042377  0.82897338  0.74697908     0.83100
C714        C  0.25936130  0.75817686  0.66521356     0.82700
O715        O  0.17584907  0.71368310  0.72494021    -0.78400
C716        C  0.32439662  0.68282359  0.74916795     0.83500
O717        O  0.18103974  0.80347274  0.72767622    -0.78500
C718        C  0.32290384  0.82893104  0.75343748     0.83700
C719        C  0.24705638  0.74508700  0.83046301     0.84000
O720        O  0.24808417  0.77759339  0.81995437    -0.80900
C721        C  0.25239666  0.76515395  0.88245610    -0.16400
C722        C  0.24755686  0.73841247  0.86270195    -0.31600
H723        H  0.25528347  0.79322201  0.87484977     0.12600
H724        H  0.24465928  0.71035447  0.87031922     0.13200
C725        C  0.23356826  0.75846941  0.61494447    -0.16400
C726        C  0.26263650  0.75850576  0.63266211    -0.31600
H727        H  0.20618163  0.75854481  0.62447213     0.12600
H728        H  0.28997445  0.75830136  0.62303106     0.13200
C729        C  0.11633099  0.90734950  0.76607517    -0.13300
C730        C  0.09627756  0.91012761  0.73992638     0.08900
C731        C  0.10457037  0.88708983  0.71595141    -0.13300
C732        C  0.13222802  0.86110219  0.71822664    -0.13300
C733        C  0.15210502  0.85766144  0.74456222     0.08900
C734        C  0.14409755  0.88133185  0.76838975    -0.13300
H735        H  0.11021925  0.92512977  0.78473275     0.12800
H736        H  0.08953903  0.88922356  0.69553357     0.12800
H737        H  0.13798944  0.84361463  0.69932727     0.12800
H738        H  0.15888558  0.87937392  0.78892697     0.12800
C739        C  0.40970125  0.88189567  0.73683572    -0.13300
C740        C  0.40676910  0.91113469  0.75681505     0.08900
C741        C  0.37598545  0.91366665  0.77559485    -0.13300
C742        C  0.34857265  0.88709066  0.77455216    -0.13300
C743        C  0.35149125  0.85757866  0.75462325     0.08900
C744        C  0.38237183  0.85538997  0.73573542    -0.13300
H745        H  0.43310532  0.87974971  0.72198324     0.12800
H746        H  0.37325364  0.93624714  0.79103708     0.12800
H747        H  0.32516509  0.88964370  0.78933636     0.12800
H748        H  0.38550806  0.83313620  0.72004174     0.12800
C749        C  0.41134685  0.62894281  0.73567941    -0.13300
C750        C  0.40790620  0.60116041  0.75705456     0.08900
C751        C  0.37731630  0.60079618  0.77608958    -0.13300
C752        C  0.35018134  0.62724702  0.77336562    -0.13300
C753        C  0.35332384  0.65490965  0.75178323     0.08900
C754        C  0.38439744  0.65572228  0.73316810    -0.13300
H755        H  0.43473183  0.62959824  0.72071951     0.12800
H756        H  0.37428844  0.57972069  0.79282446     0.12800
H757        H  0.32677362  0.62608570  0.78827566     0.12800
H758        H  0.38763491  0.67671973  0.71640178     0.12800
C759        C  0.12244730  0.59951625  0.75723644    -0.13300
C760        C  0.09537029  0.60100769  0.73576342     0.08900
C761        C  0.09504789  0.63029219  0.71559993    -0.13300
C762        C  0.12144844  0.65791357  0.71714052    -0.13100
C763        C  0.14864896  0.65640048  0.73874603     0.08900
C764        C  0.14878277  0.62683734  0.75871526    -0.13300
H765        H  0.12289409  0.57731421  0.77312841     0.12800
H766        H  0.07418294  0.63185903  0.69892414     0.12800
H767        H  0.12067429  0.68026258  0.70141991     0.12800
H768        H  0.16919740  0.62482206  0.77571824     0.12800
C769        C  0.11896927  0.86009248  0.52121084    -0.13300
C770        C  0.14754002  0.86015694  0.50009877     0.08900
C771        C  0.14945877  0.88841846  0.47896747    -0.13300
C772        C  0.12074751  0.89835481  0.97350269    -0.13300
C773        C  0.09432143  0.91533457  0.49950663     0.08900
C774        C  0.09264058  0.88760615  0.52098959    -0.13300
H775        H  0.11699876  0.83884790  0.53788583     0.12800
H776        H  0.17113734  0.88916616  0.46238974     0.12800
H777        H  0.12188642  0.91922765  0.95646621     0.12800
H778        H  0.07068831  0.88712214  0.53734186     0.12800
C779        C  0.37537599  0.90638008  0.98337525    -0.13300
C780        C  0.40525343  0.90410008  0.00218649     0.08900
C781        C  0.40203789  0.88461243  0.52661174    -0.13300
C782        C  0.38119548  0.84725513  0.02246429    -0.13300
C783        C  0.35107841  0.84958613  0.00370717     0.08900
C784        C  0.34848726  0.87949971  0.98419425    -0.13300
H785        H  0.37294963  0.92899674  0.96802434     0.12800
H786        H  0.42197970  0.88471832  0.54407583     0.12800
H787        H  0.37483625  0.83706134  0.54371799     0.12800
H788        H  0.32575065  0.88210253  0.96932687     0.12800
C789        C  0.39927520  0.63077785  0.52972158    -0.13300
C790        C  0.40761330  0.59388818  0.99898772     0.08900
C791        C  0.38198005  0.59390480  0.97624735    -0.13300
C792        C  0.35563032  0.62143708  0.97487898    -0.13300
C793        C  0.35441366  0.64941144  0.99631748     0.08900
C794        C  0.38069652  0.64961134  0.01875994    -0.13300
H795        H  0.41903710  0.63285688  0.54724176     0.12800
H796        H  0.38229698  0.57243503  0.95967704     0.12800
H797        H  0.33594048  0.62052851  0.95725885     0.12800
H798        H  0.37179537  0.67960981  0.54337284     0.12800
C799        C  0.08848718  0.62933052  0.51417577    -0.13300
C800        C  0.09122870  0.60012979  0.49402367     0.08900
C801        C  0.12633919  0.58726906  0.97405626    -0.13300
C802        C  0.15395159  0.61384090  0.97345293    -0.13300
C803        C  0.14613124  0.65458848  0.49571705     0.08900
C804        C  0.11558049  0.65629397  0.51498726    -0.13300
H805        H  0.06524817  0.63129230  0.52920935     0.12800
H806        H  0.12712178  0.56530721  0.95792112     0.12800
H807        H  0.17556695  0.61173086  0.95690458     0.12800
H808        H  0.11248974  0.67857212  0.53066220     0.12800
N809        N  0.94434670  0.99543368  0.99353946    -0.36600
N810        N  0.49658528  0.43849055  0.00870500    -0.57100
N811        N  0.55499780  0.99665095  0.00580292    -0.36500
N812        N  0.49949201  0.05404963  0.00922996    -0.57100
C813        C  0.92174012  0.46871340  0.99829350     0.27000
C814        C  0.92493353  0.02580555  0.00019919     0.27000
C815        C  0.57416859  0.46168837  0.00612258     0.27000
C816        C  0.57459661  0.02504407  0.01620230     0.27000
C817        C  0.96673145  0.42174471  0.98248788     0.35600
C818        C  0.52465221  0.41539251  0.00297887     0.35700
C819        C  0.97244462  0.07255134  0.98868318     0.35600
C820        C  0.52996213  0.07453880  0.00634959     0.35700
C821        C  0.88880480  0.47890240  0.01130282    -0.21800
C822        C  0.89116893  0.01590171  0.01194185    -0.21800
C823        C  0.60913937  0.47184059  0.01394298    -0.21800
C824        C  0.60727746  0.01227064  0.02725875    -0.21800
C825        C  0.97665828  0.38762631  0.97166677    -0.22900
C826        C  0.51161808  0.38045237  0.99778120    -0.22900
C827        C  0.98374974  0.10739258  0.98062172    -0.22900
C828        C  0.52117940  0.10957346  0.99715680    -0.22900
C829        C  0.93067411  0.43277590  0.98919077    -0.18200
C830        C  0.93594197  0.06214172  0.99427582    -0.18200
C831        C  0.56545608  0.06234568  0.01283021    -0.18200
C832        C  0.56197861  0.42506697  0.00364603    -0.18200
H833        H  0.86584287  0.46145903  0.01680022     0.14700
H834        H  0.86937296  0.03388673  0.01919331     0.14700
H835        H  0.63140178  0.45406066  0.01991932     0.14700
H836        H  0.62910322  0.02832524  0.03655435     0.14700
H837        H  0.95882527  0.36560194  0.96503951     0.13000
H838        H  0.52723360  0.35613064  0.99259319     0.13000
H839        H  0.96685430  0.13094787  0.97621570     0.13000
H840        H  0.53958347  0.13216755  0.99291381     0.13000
H841        H  0.96863047  0.99463574  0.98136156     0.26200
H842        H  0.53175702  0.99873439  0.99303162     0.26200
N843        N  0.55569616  0.49369522  0.25277120    -0.36600
N844        N  0.00069026  0.05070221  0.24391144    -0.57100
N845        N  0.94930002  0.49263814  0.23721197    -0.36500
N846        N  0.00451065  0.43587135  0.23813855    -0.57100
C847        C  0.58249429  0.01860270  0.25716894     0.27000
C848        C  0.57523872  0.46371152  0.24514690     0.27000
C849        C  0.92415735  0.02456485  0.24589032     0.27000
C850        C  0.92929036  0.46321885  0.22937534     0.27000
C851        C  0.53664187  0.06862244  0.26239354     0.35600
C852        C  0.97195946  0.07200980  0.25154756     0.35700
C853        C  0.52753964  0.41637569  0.25363909     0.35600
C854        C  0.97433039  0.41499946  0.24150991     0.35700
C855        C  0.61675995  0.00584672  0.24893847    -0.21800
C856        C  0.60883750  0.47424691  0.23354502    -0.21800
C857        C  0.88925045  0.01373395  0.23853840    -0.21800
C858        C  0.89620639  0.47474489  0.21823043    -0.21800
C859        C  0.52667610  0.10440156  0.26872932    -0.22900
C860        C  0.98366736  0.10673277  0.25911065    -0.22900
C861        C  0.51589047  0.38114683  0.26005921    -0.22900
C862        C  0.98358216  0.38052715  0.25164536    -0.22900
C863        C  0.57301602  0.05607177  0.25963714    -0.18200
C864        C  0.56432223  0.42705698  0.24978690    -0.18200
C865        C  0.93867634  0.42633364  0.23465839    -0.18200
C866        C  0.93515901  0.06126998  0.24977714    -0.18200
H867        H  0.64047169  0.02189392  0.24276328     0.14700
H868        H  0.63062815  0.45666727  0.22563400     0.14700
H869        H  0.86609136  0.03108584  0.23412566     0.14700
H870        H  0.87408117  0.45781407  0.21052286     0.14700
H871        H  0.54440220  0.12718398  0.27369160     0.13000
H872        H  0.96706970  0.12984276  0.26582465     0.13000
H873        H  0.53250004  0.35732557  0.26421560     0.13000
H874        H  0.96550971  0.35780889  0.25639148     0.13000
H875        H  0.53150276  0.49369009  0.26508769     0.26200
H876        H  0.97294647  0.49218843  0.24953166     0.26200
O877        O  0.72747919  0.24672139  0.07096966    -0.78400
C878        C  0.67556100  0.31451539  0.00045535     0.82600
O879        O  0.69977489  0.17710328  0.48926222    -0.79600
O880        O  0.74799175  0.27425267  0.42713826    -0.81000
O881        O  0.82531382  0.29292411  0.01010448    -0.80800
O882        O  0.78799933  0.24672527  0.06602764    -0.79500
Zn883      Zn  0.70876340  0.24567886  0.02847191     1.55700
O884        O  0.79294539  0.32559426  0.47614813    -0.80900
Cd885      Cd  0.79663228  0.24639868  0.02101454     1.59700
Cd886      Cd  0.74496066  0.20720103  0.47865788     1.59600
O887        O  0.82888983  0.20146193  0.01210334    -0.80800
O888        O  0.74440820  0.25460474  0.50035000    -1.91400
Cd889      Cd  0.74618964  0.29498043  0.47030868     1.59900
O890        O  0.78952120  0.17634993  0.48904491    -0.80800
O891        O  0.70121360  0.32961638  0.47529666    -0.79500
C892        C  0.67824041  0.17229388  0.00739921     0.83100
C893        C  0.75927453  0.24657977  0.08213862     0.82700
O894        O  0.67653031  0.28996346  0.02060404    -0.78400
C895        C  0.81936893  0.32482304  0.49420324     0.83500
O896        O  0.67712371  0.20029317  0.02431079    -0.78500
C897        C  0.81610187  0.18061633  0.50648458     0.83700
C898        C  0.74774831  0.24178913  0.41665956     0.84000
O899        O  0.74612698  0.21383422  0.43335614    -0.80900
O900        O  0.71372939  0.24305741  0.18333580    -0.78400
C901        C  0.68206562  0.17076291  0.25601868     0.82600
O902        O  0.70672997  0.32403190  0.26411612    -0.79600
O903        O  0.75302314  0.22469815  0.32163987    -0.81000
O904        O  0.82379270  0.19674906  0.22845218    -0.80800
O905        O  0.77396782  0.24186071  0.17670573    -0.79500
Zn906      Zn  0.70488973  0.24338319  0.22748356     1.55700
O907        O  0.80039636  0.17445875  0.27075996    -0.80900
Cd908      Cd  0.79267025  0.24305080  0.22001447     1.59700
Cd909      Cd  0.75286236  0.29315844  0.27073156     1.59600
O910        O  0.82637176  0.28866478  0.22366719    -0.80800
O911        O  0.75050990  0.24589861  0.24878735    -1.91400
Cd912      Cd  0.75332779  0.20492506  0.27820134     1.59900
O913        O  0.79785508  0.32296434  0.25766339    -0.80800
O914        O  0.70926752  0.16974264  0.27328979    -0.79500
C915        C  0.67752912  0.31727302  0.25023789     0.83100
C916        C  0.74176965  0.24258542  0.16640085     0.82700
O917        O  0.67755410  0.19718324  0.23799582    -0.78400
C918        C  0.82415690  0.17371081  0.24975330     0.83500
O919        O  0.67315161  0.28739632  0.23614496    -0.78500
C920        C  0.82422862  0.31759891  0.23945558     0.83700
C921        C  0.75455047  0.25700965  0.33234094     0.84000
O922        O  0.75581646  0.28518796  0.31584917    -0.80900
C923        C  0.74935855  0.23558261  0.38427777    -0.16400
C924        C  0.75426642  0.26289113  0.36476356    -0.31600
H925        H  0.74642957  0.20768580  0.37633286     0.12600
H926        H  0.75723773  0.29076674  0.37274335     0.13200
C927        C  0.76406801  0.24587917  0.11456970    -0.16400
C928        C  0.73615178  0.24326863  0.13401616    -0.31600
H929        H  0.79178856  0.24709426  0.12264809     0.12600
H930        H  0.70838296  0.24212070  0.12605598     0.13200
C931        C  0.61980535  0.39911430  0.27183945    -0.13300
C932        C  0.59304677  0.39848887  0.24996963     0.08900
C933        C  0.59401575  0.37100420  0.22823873    -0.13300
C934        C  0.62120540  0.34428073  0.22854243    -0.13300
C935        C  0.64819191  0.34494995  0.25033100     0.08900
C936        C  0.64724181  0.37268099  0.27195726    -0.13300
H937        H  0.61941766  0.42015292  0.28877878     0.12800
H938        H  0.57373491  0.37034025  0.21104922     0.12800
H939        H  0.62143778  0.32342840  0.21146611     0.12800
H940        H  0.66758400  0.37381590  0.28908065     0.12800
C941        C  0.90867279  0.37000166  0.21418421    -0.13300
C942        C  0.90904786  0.39868650  0.23490223     0.08900
C943        C  0.88128933  0.40095394  0.25650163    -0.13300
C944        C  0.85362551  0.37485891  0.25760619    -0.13300
C945        C  0.85321831  0.34572920  0.23720486     0.08900
C946        C  0.88097167  0.34364155  0.21534629    -0.13300
H947        H  0.92991844  0.36796887  0.19730362     0.12800
H948        H  0.88127766  0.42285036  0.27270845     0.12800
H949        H  0.83279114  0.37728945  0.27477776     0.12800
H950        H  0.88134623  0.32163203  0.19925748     0.12800
C951        C  0.90015030  0.11018734  0.22420442    -0.13300
C952        C  0.90684814  0.09022656  0.25007469     0.08900
C953        C  0.88659795  0.09781923  0.27598881    -0.13300
C954        C  0.85977627  0.12503711  0.27596654    -0.13300
C955        C  0.85285819  0.14513489  0.25000929     0.08900
C956        C  0.87344745  0.13742648  0.22415653    -0.13300
H957        H  0.91553645  0.10449623  0.20401537     0.12800
H958        H  0.89160931  0.08269098  0.29616823     0.12800
H959        H  0.84456426  0.13045014  0.29628519     0.12800
H960        H  0.86866985  0.15219980  0.20377418     0.12800
C961        C  0.62897866  0.08619933  0.28003799    -0.13300
C962        C  0.60252225  0.08403743  0.25795179     0.08900
C963        C  0.60308617  0.10971132  0.23482823    -0.13300
C964        C  0.62891900  0.13776857  0.23424991    -0.13100
C965        C  0.65509366  0.14051130  0.25660938     0.08900
C966        C  0.65513839  0.11411458  0.27932414    -0.13300
H967        H  0.62894070  0.06664636  0.29807544     0.12800
H968        H  0.58301129  0.10836285  0.21749865     0.12800
H969        H  0.62831305  0.15737956  0.21627462     0.12800
H970        H  0.67498773  0.11538794  0.29681505     0.12800
C971        C  0.61900933  0.34205661  0.02375458    -0.13300
C972        C  0.64560734  0.34192281  0.00088328     0.08900
C973        C  0.64359799  0.36863752  0.97849545    -0.13300
C974        C  0.61943495  0.41263600  0.47245604    -0.13300
C975        C  0.59000640  0.39553477  0.00230129     0.08900
C976        C  0.59157882  0.36868452  0.02450623    -0.13300
H977        H  0.61964256  0.32187265  0.04130084     0.12800
H978        H  0.66347561  0.36933850  0.96048835     0.12800
H979        H  0.62009754  0.43389770  0.45574106     0.12800
H980        H  0.57181191  0.36865610  0.04261297     0.12800
C981        C  0.87231459  0.40808415  0.46735110    -0.13300
C982        C  0.90345591  0.40680503  0.48496204     0.08900
C983        C  0.90273933  0.37678090  0.01137445    -0.13300
C984        C  0.88023868  0.35106422  0.50811343    -0.13300
C985        C  0.84866583  0.35267866  0.49088819     0.08900
C986        C  0.84521588  0.38137094  0.47029173    -0.13300
H987        H  0.86879492  0.43008827  0.45158451     0.12800
H988        H  0.92432224  0.37631701  0.02748799     0.12800
H989        H  0.87786170  0.32864529  0.02912393     0.12800
H990        H  0.82133550  0.38346144  0.45659854     0.12800
C991        C  0.90624534  0.11644144  0.01802058    -0.13300
C992        C  0.89979732  0.09856101  0.50654116     0.08900
C993        C  0.87209517  0.09742444  0.48554108    -0.13300
C994        C  0.84453802  0.12364675  0.48600916    -0.13300
C995        C  0.84427520  0.15171289  0.50740981     0.08900
C996        C  0.87166560  0.15229922  0.52886418    -0.13300
H997        H  0.92621465  0.11565857  0.03544816     0.12800
H998        H  0.87219555  0.07653063  0.46848073     0.12800
H999        H  0.82386686  0.12235272  0.46915985     0.12800
H1000       H  0.87827827  0.16237317  0.03706407     0.12800
C1001       C  0.59604334  0.11771071  0.03430267    -0.13300
C1002       C  0.59529632  0.08960990  0.01307473     0.08900
C1003       C  0.61642800  0.09959238  0.48859729    -0.13300
C1004       C  0.64298629  0.12664701  0.48690536    -0.13300
C1005       C  0.64964317  0.14387491  0.00985853     0.08900
C1006       C  0.62305125  0.14473600  0.03269711    -0.13300
H1007       H  0.57546263  0.11892548  0.05177307     0.12800
H1008       H  0.61600008  0.07832172  0.47185792     0.12800
H1009       H  0.66277564  0.12559811  0.46883991     0.12800
H1010       H  0.62302558  0.16630229  0.04917590     0.12800
N1011       N  0.94202914  0.00574230  0.49945016    -0.36600
N1012       N  0.49796123  0.45173074  0.50344089    -0.57100
N1013       N  0.55200693  0.00604816  0.50733070    -0.36500
N1014       N  0.49529764  0.06273616  0.50891762    -0.57100
C1015       C  0.92048361  0.47296386  0.48951198     0.27000
C1016       C  0.92118113  0.03416060  0.50866031     0.27000
C1017       C  0.57454150  0.47812044  0.50173577     0.27000
C1018       C  0.57115410  0.03555967  0.51615690     0.27000
C1019       C  0.96806614  0.42723605  0.47802391     0.35600
C1020       C  0.52655538  0.43101112  0.49438871     0.35700
C1021       C  0.96562319  0.08416100  0.49906542     0.35600
C1022       C  0.52527716  0.08375841  0.50547608     0.35700
C1023       C  0.88711708  0.48298529  0.50183149    -0.21800
C1024       C  0.88845038  0.02120101  0.52031620    -0.21800
C1025       C  0.60934291  0.48836495  0.50994212    -0.21800
C1026       C  0.60422550  0.02437580  0.52753000    -0.21800
C1027       C  0.98042629  0.39368537  0.46774763    -0.22900
C1028       C  0.51459756  0.39658336  0.48607248    -0.22900
C1029       C  0.97484986  0.11974330  0.49144364    -0.22900
C1030       C  0.51564124  0.11868684  0.49656666    -0.22900
C1031       C  0.93126752  0.43656386  0.48325062    -0.18200
C1032       C  0.92986661  0.07152122  0.50488220    -0.18200
C1033       C  0.56105853  0.07238557  0.51166505    -0.18200
C1034       C  0.56355480  0.44167617  0.49596664    -0.18200
H1035       H  0.86514763  0.46516580  0.50900867     0.14700
H1036       H  0.86597187  0.03711203  0.52925600     0.14700
H1037       H  0.63253082  0.47075349  0.51353787     0.14700
H1038       H  0.62573895  0.04154125  0.53599302     0.14700
H1039       H  0.96422613  0.37082081  0.46027665     0.13000
H1040       H  0.53094382  0.37387719  0.47812560     0.13000
H1041       H  0.95663889  0.14248989  0.48776999     0.13000
H1042       H  0.53349877  0.14166679  0.49213484     0.13000
H1043       H  0.96586594  0.00748295  0.48675128     0.26200
H1044       H  0.52851080  0.00671495  0.49478277     0.26200
N1045       N  0.55629834  0.50308117  0.75608781    -0.36600
N1046       N  0.99818499  0.05863059  0.73923664    -0.57100
N1047       N  0.94723807  0.50405395  0.74910703    -0.36500
N1048       N  0.00456727  0.44878412  0.74559767    -0.57100
C1049       C  0.57730542  0.03639288  0.75164213     0.27000
C1050       C  0.57598151  0.47330624  0.74810743     0.27000
C1051       C  0.92292696  0.03089999  0.73210366     0.27000
C1052       C  0.92764341  0.47337729  0.74421184     0.27000
C1053       C  0.53001516  0.08427869  0.75706285     0.35600
C1054       C  0.96809019  0.07851190  0.74564305     0.35700
C1055       C  0.52909812  0.42594873  0.75883766     0.35600
C1056       C  0.97605883  0.42764199  0.75391720     0.35700
C1057       C  0.61137005  0.02423570  0.74228004    -0.21800
C1058       C  0.60938089  0.48421855  0.73631218    -0.21800
C1059       C  0.88972635  0.02047705  0.72054558    -0.21800
C1060       C  0.89321685  0.48283075  0.73448664    -0.21800
C1061       C  0.51818370  0.11895056  0.76502210    -0.22900
C1062       C  0.97779883  0.11304657  0.75546751    -0.22900
C1063       C  0.51811471  0.39104560  0.76687716    -0.22900
C1064       C  0.98822645  0.39404276  0.76397126    -0.22900
C1065       C  0.56676904  0.07357472  0.75372006    -0.18200
C1066       C  0.56550596  0.43657759  0.75297985    -0.18200
C1067       C  0.93920540  0.43726380  0.75019624    -0.18200
C1068       C  0.93207648  0.06693164  0.74045547    -0.18200
H1069       H  0.63394609  0.04062802  0.73411607     0.14700
H1070       H  0.63127349  0.46688638  0.72821687     0.14700
H1071       H  0.86691104  0.03793639  0.71533160     0.14700
H1072       H  0.87116768  0.46458540  0.72881304     0.14700
H1073       H  0.53470309  0.14224341  0.77103977     0.13000
H1074       H  0.95983907  0.13526513  0.76183151     0.13000
H1075       H  0.53519356  0.36749440  0.77082118     0.13000
H1076       H  0.97191418  0.37125093  0.77181896     0.13000
H1077       H  0.53229149  0.50304622  0.76862199     0.26200
H1078       H  0.97230473  0.50534666  0.75949875     0.26200
O1079       O  0.71033636  0.26177055  0.56740619    -0.78400
C1080       C  0.67430751  0.32837812  0.49360178     0.82600
O1081       O  0.70355592  0.16795030  0.98807620    -0.79600
O1082       O  0.74808088  0.26823938  0.92813762    -0.81000
O1083       O  0.82114105  0.30089416  0.51481807    -0.80800
O1084       O  0.77078223  0.26060987  0.57104096    -0.79500
Zn1085     Zn  0.69974513  0.25816679  0.52401816     1.55700
O1086       O  0.79167144  0.32180402  0.97678298    -0.80900
Cd1087     Cd  0.78795241  0.25662330  0.52674572     1.59700
Cd1088     Cd  0.74874918  0.19798739  0.97668309     1.59600
O1089       O  0.81923178  0.20922084  0.52250451    -0.80800
O1090       O  0.74949339  0.24442408  0.99989851    -1.91400
Cd1091     Cd  0.74730523  0.28669590  0.97177914     1.59900
O1092       O  0.79419853  0.16632574  0.98375727    -0.80800
O1093       O  0.69987259  0.31620661  0.97989973    -0.79500
C1094       C  0.67191697  0.18343992  0.50558013     0.83100
C1095       C  0.73893934  0.26190450  0.58292265     0.82700
O1096       O  0.67120163  0.30272071  0.51260292    -0.78400
C1097       C  0.81999425  0.31984452  0.99278806     0.83500
O1098       O  0.66809125  0.21342598  0.51966355    -0.78500
C1099       C  0.82359953  0.17209219  0.99761476     0.83700
C1100       C  0.74843120  0.23650309  0.91629443     0.84000
O1101       O  0.74811453  0.20743013  0.93172532    -0.80900
O1102       O  0.72724754  0.25739831  0.67914420    -0.78400
C1103       C  0.67984713  0.18454188  0.74976418     0.82600
O1104       O  0.70661123  0.33167259  0.76636006    -0.79600
O1105       O  0.75180691  0.22754198  0.82055758    -0.81000
O1106       O  0.82645702  0.20697596  0.73147015    -0.80800
O1107       O  0.78788610  0.25798087  0.68109367    -0.79500
Zn1108     Zn  0.71022801  0.25580941  0.72282662     1.55700
O1109       O  0.79652777  0.17795067  0.76780378    -0.80900
Cd1110     Cd  0.79821001  0.25466469  0.72541175     1.59700
Cd1111     Cd  0.75223718  0.30072200  0.77399479     1.59600
O1112       O  0.83171945  0.29786183  0.73539889    -0.80800
O1113       O  0.75215548  0.25558691  0.74920664    -1.91400
Cd1114     Cd  0.75196541  0.21202329  0.77610401     1.59900
O1115       O  0.79825508  0.33193198  0.76636603    -0.80800
O1116       O  0.70538632  0.18208586  0.76853228    -0.79500
C1117       C  0.67995454  0.32765858  0.74890225     0.83100
C1118       C  0.75865209  0.25851231  0.66642287     0.82700
O1119       O  0.67894913  0.21044292  0.73073715    -0.78400
C1120       C  0.82275483  0.17985624  0.74892517     0.83500
O1121       O  0.67821597  0.30048474  0.73114465    -0.78500
C1122       C  0.82734740  0.32640020  0.75123945     0.83700
C1123       C  0.75146531  0.25883306  0.83313362     0.84000
O1124       O  0.75154814  0.28844254  0.81841113    -0.80900
C1125       C  0.74943340  0.23270235  0.88370921    -0.16400
C1126       C  0.75076415  0.26186508  0.86572641    -0.31600
H1127       H  0.74921652  0.20530357  0.87435730     0.12600
H1128       H  0.75102779  0.28920984  0.87518198     0.13200
C1129       C  0.73423342  0.26265848  0.61555808    -0.16400
C1130       C  0.76256878  0.26009770  0.63380413    -0.31600
H1131       H  0.70670590  0.26408692  0.62473013     0.12600
H1132       H  0.79004310  0.25868143  0.62450655     0.13200
C1133       C  0.62100699  0.40740095  0.77382229    -0.13300
C1134       C  0.59431540  0.40806214  0.75194981     0.08900
C1135       C  0.59559163  0.38210236  0.72900205    -0.13300
C1136       C  0.62332853  0.35582304  0.72792995    -0.13300
C1137       C  0.65031064  0.35521898  0.74974964     0.08900
C1138       C  0.64872346  0.38128098  0.77275081    -0.13300
H1139       H  0.62035662  0.42721153  0.79170976     0.12800
H1140       H  0.57524563  0.38239507  0.71186154     0.12800
H1141       H  0.62381700  0.33619874  0.70992479     0.12800
H1142       H  0.66886945  0.38145953  0.79004672     0.12800
C1143       C  0.91293752  0.37892669  0.73103286    -0.13300
C1144       C  0.91137700  0.40789868  0.75141061     0.08900
C1145       C  0.88272614  0.40944987  0.77233293    -0.13300
C1146       C  0.85550134  0.38279475  0.77245900    -0.13300
C1147       C  0.85671507  0.35396377  0.75181704     0.08900
C1148       C  0.88595307  0.35205868  0.73133013    -0.13300
H1149       H  0.93482829  0.37743050  0.71466478     0.12800
H1150       H  0.88125827  0.43159272  0.78828499     0.12800
H1151       H  0.83345270  0.38484988  0.78863005     0.12800
H1152       H  0.88763464  0.33019972  0.71514149     0.12800
C1153       C  0.89765190  0.11873339  0.71867823    -0.13300
C1154       C  0.90273838  0.09458334  0.74230685     0.08900
C1155       C  0.88099818  0.09778602  0.76805690    -0.13300
C1156       C  0.85454097  0.12524567  0.77024445    -0.13300
C1157       C  0.84973412  0.14993324  0.74673515     0.08900
C1158       C  0.87142816  0.14621342  0.72087252    -0.13300
H1159       H  0.91429988  0.11649144  0.69869152     0.12800
H1160       H  0.88491895  0.07937375  0.78654371     0.12800
H1161       H  0.83835610  0.12759169  0.79046069     0.12800
H1162       H  0.86815710  0.16460571  0.70228378     0.12800
C1163       C  0.62373447  0.10200956  0.77308433    -0.13300
C1164       C  0.59550744  0.10237183  0.75250938     0.08900
C1165       C  0.59480248  0.13016201  0.73098526    -0.13300
C1166       C  0.62203854  0.15703077  0.73002144    -0.13100
C1167       C  0.65058586  0.15645720  0.75048823     0.08900
C1168       C  0.65099522  0.12862822  0.77204819    -0.13300
H1169       H  0.62463699  0.08101162  0.78999442     0.12800
H1170       H  0.57321971  0.13093109  0.71488429     0.12800
H1171       H  0.62081776  0.17811004  0.71320869     0.12800
H1172       H  0.67241380  0.12737198  0.78825829     0.12800
C1173       C  0.61828349  0.35750210  0.51536593    -0.13300
C1174       C  0.64596074  0.35737802  0.49338945     0.08900
C1175       C  0.64627620  0.38531146  0.47189752    -0.13300
C1176       C  0.61608323  0.39506717  0.97918598    -0.13300
C1177       C  0.59197022  0.41254980  0.49456363     0.08900
C1178       C  0.59177911  0.38481311  0.51600943    -0.13300
H1179       H  0.61720886  0.33660317  0.53236138     0.12800
H1180       H  0.66721764  0.38606330  0.45470654     0.12800
H1181       H  0.61532817  0.41550760  0.96182397     0.12800
H1182       H  0.57105473  0.38442431  0.53339561     0.12800
C1183       C  0.87329453  0.40467764  0.96937700    -0.13300
C1184       C  0.90169843  0.40437288  0.98988203     0.08900
C1185       C  0.90730055  0.37788679  0.50520326    -0.13300
C1186       C  0.87613098  0.34956837  0.01222054    -0.13300
C1187       C  0.84770622  0.34938594  0.99163253     0.08900
C1188       C  0.84645114  0.37736431  0.97023285    -0.13300
H1189       H  0.87210654  0.42588177  0.95265899     0.12800
H1190       H  0.93104135  0.37644143  0.51912233     0.12800
H1191       H  0.88392666  0.32925148  0.52401457     0.12800
H1192       H  0.82495423  0.37798021  0.95406186     0.12800
C1193       C  0.89915432  0.12581855  0.52848525    -0.13300
C1194       C  0.90760656  0.09086587  0.99486133     0.08900
C1195       C  0.88133970  0.09191015  0.97265209    -0.13300
C1196       C  0.85384228  0.11823506  0.97362662    -0.13300
C1197       C  0.85242768  0.14404845  0.99673748     0.08900
C1198       C  0.87892838  0.14297264  0.01889365    -0.13300
H1199       H  0.92023926  0.12683511  0.54500797     0.12800
H1200       H  0.88213247  0.07224242  0.95466516     0.12800
H1201       H  0.83390263  0.11861850  0.95617132     0.12800
H1202       H  0.87203513  0.17337110  0.54574772     0.12800
C1203       C  0.59077644  0.12818793  0.53276582    -0.13300
C1204       C  0.59015455  0.10026505  0.51140933     0.08900
C1205       C  0.62195526  0.08852537  0.99055212    -0.13300
C1206       C  0.64884786  0.11532118  0.98894813    -0.13300
C1207       C  0.64358966  0.15502337  0.50792531     0.08900
C1208       C  0.61732461  0.15555562  0.53098249    -0.13300
H1209       H  0.57050750  0.12893102  0.55049553     0.12800
H1210       H  0.62148533  0.06721392  0.97384735     0.12800
H1211       H  0.66879202  0.11384924  0.97102060     0.12800
H1212       H  0.61739437  0.17696406  0.54760038     0.12800
N1213       N  0.94322049  0.49855549  0.99471347    -0.36600
N1214       N  0.49948224  0.94196543  0.00143857    -0.57100
N1215       N  0.55442919  0.49195960  0.00007846    -0.36500
N1216       N  0.50056040  0.55098835  0.00112711    -0.57100
C1217       C  0.92333868  0.96633567  0.00101394     0.27000
C1218       C  0.92438618  0.52756284  0.00543417     0.27000
C1219       C  0.57483938  0.96595955  0.00998485     0.27000
C1220       C  0.57631077  0.52123764  0.00442519     0.27000
C1221       C  0.96877293  0.91763590  0.99101159     0.35600
C1222       C  0.52864279  0.92138543  0.99369290     0.35700
C1223       C  0.97206711  0.57525369  0.99787723     0.35600
C1224       C  0.53097229  0.57060187  0.99519386     0.35700
C1225       C  0.89017056  0.97833539  0.01244835    -0.21800
C1226       C  0.89050058  0.51603681  0.01587292    -0.21800
C1227       C  0.60742746  0.97491798  0.02333015    -0.21800
C1228       C  0.61046694  0.50937556  0.01294318    -0.21800
C1229       C  0.97887342  0.88260817  0.98256407    -0.22900
C1230       C  0.51742925  0.88868522  0.98121367    -0.22900
C1231       C  0.98309095  0.61025091  0.99012676    -0.22900
C1232       C  0.52185223  0.60560137  0.98614392    -0.22900
C1233       C  0.93260850  0.92930624  0.99619473    -0.18200
C1234       C  0.93553827  0.56452901  0.00333392    -0.18200
C1235       C  0.56688841  0.55829016  0.99969989    -0.18200
C1236       C  0.56493186  0.93053402  0.00041365    -0.18200
H1237       H  0.86751088  0.96175071  0.02018062     0.14700
H1238       H  0.86897205  0.53276507  0.02537656     0.14700
H1239       H  0.62924387  0.95655417  0.02924630     0.14700
H1240       H  0.63401274  0.52600918  0.01786146     0.14700
H1241       H  0.96119959  0.85980588  0.97753929     0.13000
H1242       H  0.53436681  0.86648768  0.97313649     0.13000
H1243       H  0.96605218  0.63391264  0.98651596     0.13000
H1244       H  0.54016293  0.62768321  0.98010613     0.13000
H1245       H  0.96743542  0.49982119  0.98248580     0.26200
H1246       H  0.52886559  0.49237651  0.99057689     0.26200
N1247       N  0.56032103  0.98984421  0.26329105    -0.36600
N1248       N  0.00499498  0.54870967  0.23773769    -0.57100
N1249       N  0.94519775  0.99469820  0.25014046    -0.36500
N1250       N  0.00090667  0.93778752  0.24272836    -0.57100
C1251       C  0.57643006  0.52326086  0.24594428     0.27000
C1252       C  0.57995047  0.95897173  0.25854142     0.27000
C1253       C  0.92925617  0.52266640  0.23130217     0.27000
C1254       C  0.92420059  0.96502048  0.24517536     0.27000
C1255       C  0.53140507  0.57118030  0.25961815     0.35600
C1256       C  0.97547775  0.56999404  0.24274474     0.35700
C1257       C  0.53015469  0.91328950  0.26591752     0.35600
C1258       C  0.97180154  0.91684550  0.25008580     0.35700
C1259       C  0.60948838  0.51181373  0.23382566    -0.21800
C1260       C  0.61515776  0.96829774  0.24977648    -0.21800
C1261       C  0.89611890  0.51230268  0.21959196    -0.21800
C1262       C  0.88929945  0.97615866  0.23797989    -0.21800
C1263       C  0.52177774  0.60521770  0.27075949    -0.22900
C1264       C  0.98611801  0.60480585  0.25120694    -0.22900
C1265       C  0.51718271  0.87887570  0.27347598    -0.22900
C1266       C  0.98307577  0.88189378  0.25749965    -0.22900
C1267       C  0.56721988  0.56012535  0.25214267    -0.18200
C1268       C  0.56739326  0.92261048  0.26274048    -0.18200
C1269       C  0.93503784  0.92818555  0.24865096    -0.18200
C1270       C  0.93917611  0.55898660  0.23805408    -0.18200
H1271       H  0.63195810  0.52871780  0.22620393     0.14700
H1272       H  0.63742733  0.94997564  0.24434769     0.14700
H1273       H  0.87402735  0.52996415  0.21300796     0.14700
H1274       H  0.86614458  0.95900443  0.23300723     0.14700
H1275       H  0.53971351  0.62750117  0.27659250     0.13000
H1276       H  0.96884297  0.62794390  0.25651286     0.13000
H1277       H  0.53293536  0.85500617  0.27929803     0.13000
H1278       H  0.96621246  0.85896380  0.26419942     0.13000
H1279       H  0.53439703  0.99126403  0.27280315     0.26200
H1280       H  0.97114990  0.99443148  0.25906169     0.26200
O1281       O  0.71050531  0.74733855  0.06787798    -0.78400
C1282       C  0.67504763  0.81706579  0.99633291     0.82600
O1283       O  0.70034229  0.68325200  0.48475726    -0.79600
O1284       O  0.74860343  0.78824194  0.43291140    -0.81000
O1285       O  0.82078407  0.79364854  0.01936540    -0.80800
O1286       O  0.77082753  0.74924640  0.07255055    -0.79500
Zn1287     Zn  0.70134919  0.74541811  0.02392785     1.55700
O1288       O  0.79380448  0.83254662  0.48458517    -0.80900
Cd1289     Cd  0.78952426  0.74744479  0.02867595     1.59700
Cd1290     Cd  0.74697796  0.71278154  0.47593681     1.59600
O1291       O  0.82337573  0.70183950  0.02346851    -0.80800
O1292       O  0.74816164  0.75626409  0.50280191    -1.91400
Cd1293     Cd  0.74812755  0.80102439  0.47756775     1.59900
O1294       O  0.79107394  0.67872157  0.48274402    -0.80800
O1295       O  0.70261081  0.83227869  0.48665129    -0.79500
C1296       C  0.67700207  0.67089680  0.00075193     0.83100
C1297       C  0.73869544  0.74865329  0.08391455     0.82700
O1298       O  0.67137300  0.78970861  0.01365298    -0.78400
C1299       C  0.82245415  0.82777632  0.49968809     0.83500
O1300       O  0.67180490  0.69967052  0.01624447    -0.78500
C1301       C  0.81923187  0.68099500  0.49883724     0.83700
C1302       C  0.74898598  0.75838519  0.41838967     0.84000
O1303       O  0.74829887  0.72735884  0.43130014    -0.80900
O1304       O  0.72662554  0.74610098  0.18069516    -0.78400
C1305       C  0.68171758  0.66937124  0.24801662     0.82600
O1306       O  0.70577473  0.81342580  0.27418448    -0.79600
O1307       O  0.75338648  0.70511538  0.31981169    -0.81000
O1308       O  0.83078489  0.69829098  0.23215322    -0.80800
O1309       O  0.78724145  0.74524607  0.18214024    -0.79500
Zn1310     Zn  0.71067224  0.74301273  0.22478096     1.55700
O1311       O  0.79953665  0.66387024  0.26434343    -0.80900
Cd1312     Cd  0.79835551  0.74337153  0.22634896     1.59700
Cd1313     Cd  0.75295148  0.78358690  0.27926372     1.59600
O1314       O  0.82788309  0.78936889  0.23530964    -0.80800
O1315       O  0.75296413  0.74140828  0.25089113    -1.91400
Cd1316     Cd  0.75401127  0.69523366  0.27449354     1.59900
O1317       O  0.79734995  0.81806531  0.27151828    -0.80800
O1318       O  0.70843787  0.66497700  0.26535386    -0.79500
C1319       C  0.67963937  0.81145918  0.25594378     0.83100
C1320       C  0.75787737  0.74639474  0.16768558     0.82700
O1321       O  0.67946463  0.69732295  0.23114247    -0.78400
C1322       C  0.82714730  0.66919062  0.24736588     0.83500
O1323       O  0.67878586  0.78684976  0.23579904    -0.78500
C1324       C  0.82415886  0.81609073  0.25318151     0.83700
C1325       C  0.75318528  0.73437755  0.33514538     0.84000
O1326       O  0.75352490  0.76591784  0.32305459    -0.80900
C1327       C  0.75040195  0.76070826  0.38565747    -0.16400
C1328       C  0.75218476  0.73119122  0.36788889    -0.31600
H1329       H  0.75011116  0.78786280  0.37589745     0.12600
H1330       H  0.75248561  0.70397273  0.37753222     0.13200
C1331       C  0.73339050  0.74895768  0.11655695    -0.16400
C1332       C  0.76164708  0.74779958  0.13501902    -0.31600
H1333       H  0.70573394  0.74924051  0.12551662     0.12600
H1334       H  0.78920988  0.74729325  0.12582583     0.13200
C1335       C  0.62143024  0.89045555  0.28388681    -0.13300
C1336       C  0.59472633  0.89255023  0.26206227     0.08900
C1337       C  0.59503348  0.86692671  0.23883786    -0.13300
C1338       C  0.62220115  0.84014436  0.23704966    -0.13300
C1339       C  0.64969482  0.83863204  0.25840058     0.08900
C1340       C  0.64866066  0.86380853  0.28207577    -0.13300
H1341       H  0.62150142  0.90988918  0.30203901     0.12800
H1342       H  0.57460837  0.86815964  0.22178464     0.12800
H1343       H  0.62205645  0.82108912  0.21864957     0.12800
H1344       H  0.66915746  0.86322084  0.29908575     0.12800
C1345       C  0.90440854  0.87335377  0.22746608    -0.13300
C1346       C  0.90623107  0.89976189  0.24990262     0.08900
C1347       C  0.88052915  0.89920189  0.27330867    -0.13300
C1348       C  0.85345881  0.87227411  0.27437754    -0.13300
C1349       C  0.85193726  0.84538171  0.25213516     0.08900
C1350       C  0.87762275  0.84635711  0.22860768    -0.13300
H1351       H  0.92384440  0.87363982  0.20911641     0.12800
H1352       H  0.88158688  0.91954482  0.29075572     0.12800
H1353       H  0.83405018  0.87225013  0.29272958     0.12800
H1354       H  0.87702705  0.82625765  0.21096089     0.12800
C1355       C  0.90838937  0.61506238  0.21904614    -0.13300
C1356       C  0.91003328  0.58688511  0.24001833     0.08900
C1357       C  0.88424757  0.58552851  0.26328334    -0.13300
C1358       C  0.85719645  0.61224241  0.26570248    -0.13300
C1359       C  0.85565318  0.64080454  0.24491971     0.08900
C1360       C  0.88150252  0.64190436  0.22152914    -0.13300
H1361       H  0.92806221  0.61631053  0.20089599     0.12800
H1362       H  0.88531093  0.56392218  0.27967262     0.12800
H1363       H  0.83772798  0.61073401  0.28397394     0.12800
H1364       H  0.88083155  0.66339303  0.20502860     0.12800
C1365       C  0.62722687  0.58487797  0.26855735    -0.13300
C1366       C  0.59650845  0.58832704  0.25071065     0.08900
C1367       C  0.59391966  0.61850620  0.23155388    -0.13300
C1368       C  0.62160961  0.64487322  0.23039697    -0.13100
C1369       C  0.65250516  0.64132299  0.24822978     0.08900
C1370       C  0.65498568  0.61090735  0.26721356    -0.13300
H1371       H  0.62968487  0.56192818  0.28357059     0.12800
H1372       H  0.57042031  0.62161728  0.21754450     0.12800
H1373       H  0.61877722  0.66801758  0.21564572     0.12800
H1374       H  0.67831015  0.60727999  0.28131998     0.12800
C1375       C  0.61575562  0.84246506  0.01545784    -0.13300
C1376       C  0.64645558  0.84573621  0.99654154     0.08900
C1377       C  0.64997108  0.87711655  0.97865341    -0.13300
C1378       C  0.62163992  0.91352199  0.48601695    -0.13300
C1379       C  0.59314557  0.90136614  0.99900226     0.08900
C1380       C  0.58947620  0.87003138  0.01673224    -0.13300
H1381       H  0.61214894  0.81872515  0.02954473     0.12800
H1382       H  0.67326556  0.88052237  0.96386281     0.12800
H1383       H  0.62335991  0.93587630  0.47029973     0.12800
H1384       H  0.56624682  0.86701724  0.03166510     0.12800
C1385       C  0.87663001  0.91198966  0.47800628    -0.13300
C1386       C  0.90613660  0.90977065  0.49730351     0.08900
C1387       C  0.90277231  0.87461654  0.01964089    -0.13300
C1388       C  0.88132374  0.85347965  0.51766847    -0.13300
C1389       C  0.85142251  0.85583121  0.49864289     0.08900
C1390       C  0.84941877  0.88531291  0.47872166    -0.13300
H1391       H  0.87456035  0.93459450  0.46260864     0.12800
H1392       H  0.92359412  0.87448148  0.03640454     0.12800
H1393       H  0.87608839  0.82747733  0.03781336     0.12800
H1394       H  0.82681701  0.88781883  0.46370654     0.12800
C1395       C  0.90621695  0.62001595  0.02691468    -0.13300
C1396       C  0.90174066  0.59792692  0.49187459     0.08900
C1397       C  0.87179076  0.59745157  0.47292952    -0.13300
C1398       C  0.84457388  0.62395859  0.47562973    -0.13300
C1399       C  0.84700692  0.65170357  0.49713755     0.08900
C1400       C  0.87687010  0.65184083  0.51632365    -0.13300
H1401       H  0.92709183  0.62043421  0.04362786     0.12800
H1402       H  0.86961815  0.57660162  0.45596236     0.12800
H1403       H  0.82193455  0.62304632  0.46053402     0.12800
H1404       H  0.87878619  0.66710777  0.04495564     0.12800
C1405       C  0.59653130  0.61206949  0.02355885    -0.13300
C1406       C  0.59607225  0.58627449  0.00050578     0.08900
C1407       C  0.61505573  0.60719276  0.48124865    -0.13300
C1408       C  0.64200749  0.63411140  0.48088713    -0.13300
C1409       C  0.64910561  0.64181370  0.00075763     0.08900
C1410       C  0.62274151  0.63975098  0.02362605    -0.13300
H1411       H  0.57631462  0.61090747  0.04131184     0.12800
H1412       H  0.61204804  0.58957324  0.46210661     0.12800
H1413       H  0.65934103  0.63665518  0.46132282     0.12800
H1414       H  0.62251226  0.65938527  0.04163070     0.12800
N1415       N  0.94058067  0.50332823  0.48371742    -0.36600
N1416       N  0.49734153  0.95018049  0.50564391    -0.57100
N1417       N  0.55332277  0.50828670  0.49953489    -0.36500
N1418       N  0.49714433  0.56443699  0.50948560    -0.57100
C1419       C  0.92290622  0.97486801  0.50518019     0.27000
C1420       C  0.92041808  0.53245527  0.49245847     0.27000
C1421       C  0.57248570  0.97616572  0.51307038     0.27000
C1422       C  0.57415521  0.53747014  0.50667365     0.27000
C1423       C  0.97075616  0.92978165  0.49184289     0.35600
C1424       C  0.52693464  0.92905399  0.50026765     0.35700
C1425       C  0.96704259  0.58098110  0.48442637     0.35600
C1426       C  0.52650180  0.58607599  0.50462265     0.35700
C1427       C  0.88953892  0.98374362  0.51812347    -0.21800
C1428       C  0.88707427  0.52050031  0.50369640    -0.21800
C1429       C  0.60507148  0.98686077  0.52556616    -0.21800
C1430       C  0.60910308  0.52576138  0.51303013    -0.21800
C1431       C  0.98287250  0.89600481  0.48181902    -0.22900
C1432       C  0.51638031  0.89468280  0.49072058    -0.22900
C1433       C  0.97783120  0.61596210  0.47628178    -0.22900
C1434       C  0.51550778  0.62161639  0.49902651    -0.22900
C1435       C  0.93404981  0.93907656  0.49755415    -0.18200
C1436       C  0.93058551  0.56958357  0.48908921    -0.18200
C1437       C  0.56318328  0.57458208  0.50601300    -0.18200
C1438       C  0.56309992  0.93967787  0.50610944    -0.18200
H1439       H  0.86811065  0.96517995  0.52515111     0.14700
H1440       H  0.86498361  0.53706497  0.51247278     0.14700
H1441       H  0.62723633  0.96947405  0.53243400     0.14700
H1442       H  0.63211841  0.54244666  0.51926585     0.14700
H1443       H  0.96656039  0.87279123  0.47526327     0.13000
H1444       H  0.53371858  0.87175183  0.48495610     0.13000
H1445       H  0.96053820  0.63876371  0.47056619     0.13000
H1446       H  0.53260606  0.64512656  0.49443038     0.13000
H1447       H  0.96514738  0.50444168  0.47187716     0.26200
H1448       H  0.52737190  0.50928915  0.49081304     0.26200
N1449       N  0.55676614  0.00746922  0.76044320    -0.36600
N1450       N  0.00086456  0.56121496  0.74017378    -0.57100
N1451       N  0.94398584  0.00103197  0.73613844    -0.36500
N1452       N  0.00080580  0.94581901  0.73244800    -0.57100
C1453       C  0.57677153  0.53279770  0.74942838     0.27000
C1454       C  0.57732836  0.97706355  0.75663163     0.27000
C1455       C  0.92562343  0.53284422  0.74262057     0.27000
C1456       C  0.92452474  0.97167518  0.72729291     0.27000
C1457       C  0.53118918  0.58051128  0.76260322     0.35600
C1458       C  0.97156866  0.58194065  0.74749343     0.35700
C1459       C  0.52983632  0.93078702  0.76900315     0.35600
C1460       C  0.97139765  0.92374639  0.73541276     0.35700
C1461       C  0.60984916  0.52180320  0.73708009    -0.21800
C1462       C  0.61140700  0.98681094  0.74546673    -0.21800
C1463       C  0.89188643  0.52039180  0.73367092    -0.21800
C1464       C  0.89078737  0.98308032  0.71738365    -0.21800
C1465       C  0.52114731  0.61491603  0.77277530    -0.22900
C1466       C  0.98236586  0.61716083  0.75441444    -0.22900
C1467       C  0.51829538  0.89706104  0.77961035    -0.22900
C1468       C  0.98224575  0.88874705  0.74311647    -0.22900
C1469       C  0.56726121  0.56937273  0.75606483    -0.18200
C1470       C  0.56654872  0.94096772  0.76404687    -0.18200
C1471       C  0.93496389  0.93471970  0.73086291    -0.18200
C1472       C  0.93507058  0.57003140  0.74600960    -0.18200
H1473       H  0.63218055  0.53904232  0.72967787     0.14700
H1474       H  0.63402026  0.96885595  0.74018372     0.14700
H1475       H  0.86871873  0.53668412  0.72723303     0.14700
H1476       H  0.86887060  0.96610559  0.70935189     0.14700
H1477       H  0.53886242  0.63732951  0.77872990     0.13000
H1478       H  0.96517563  0.63996945  0.76079507     0.13000
H1479       H  0.53507149  0.87483941  0.78740922     0.13000
H1480       H  0.96518299  0.86509096  0.74719867     0.13000
H1481       H  0.53161951  0.00877393  0.77136629     0.26200
H1482       H  0.96790798  0.00027174  0.74799351     0.26200
O1483       O  0.72348585  0.75694399  0.57361172    -0.78400
C1484       C  0.67648174  0.82903435  0.50543281     0.82600
O1485       O  0.70580107  0.66645154  0.98512186    -0.79600
O1486       O  0.75030210  0.76982769  0.92949699    -0.81000
O1487       O  0.82683982  0.79947533  0.51568320    -0.80800
O1488       O  0.78411004  0.75519489  0.56988764    -0.79500
Zn1489     Zn  0.70640191  0.75680936  0.53050788     1.55700
O1490       O  0.79436058  0.81956261  0.98042524    -0.80900
Cd1491     Cd  0.79458983  0.75473909  0.52513628     1.59700
Cd1492     Cd  0.75025690  0.69927034  0.97777121     1.59600
O1493       O  0.82441653  0.70816810  0.51595623    -0.80800
O1494       O  0.74699464  0.74524285  0.00133812    -1.91400
Cd1495     Cd  0.74860481  0.78767578  0.97324634     1.59900
O1496       O  0.79600229  0.67012146  0.98799712    -0.80800
O1497       O  0.70295998  0.82053033  0.97932346    -0.79500
C1498       C  0.67541937  0.68570229  0.50469257     0.83100
C1499       C  0.75491602  0.75607375  0.58541189     0.82700
O1500       O  0.67482679  0.80206425  0.52344684    -0.78400
C1501       C  0.81956815  0.81860864  0.99958699     0.83500
O1502       O  0.67502550  0.71156107  0.52379330    -0.78500
C1503       C  0.82193897  0.67427667  0.00611055     0.83700
C1504       C  0.75171589  0.73814928  0.91763232     0.84000
O1505       O  0.75209742  0.70906775  0.93299418    -0.80900
O1506       O  0.70897971  0.75819427  0.68690542    -0.78400
C1507       C  0.67805192  0.68162195  0.75616346     0.82600
O1508       O  0.70679211  0.83300108  0.77222173    -0.79600
O1509       O  0.75151545  0.72835330  0.82250586    -0.81000
O1510       O  0.82055197  0.70426075  0.72856015    -0.80800
O1511       O  0.76872871  0.75131589  0.67944917    -0.79500
Zn1512     Zn  0.70168794  0.75567736  0.73128100     1.55700
O1513       O  0.79722252  0.67976813  0.76994278    -0.80900
Cd1514     Cd  0.78919392  0.75102051  0.72198102     1.59700
Cd1515     Cd  0.75250010  0.80026906  0.77507128     1.59600
O1516       O  0.82317779  0.79616824  0.72523807    -0.80800
O1517       O  0.74807454  0.75439377  0.75146663    -1.91400
Cd1518     Cd  0.75088838  0.71122816  0.77859441     1.59900
O1519       O  0.79719501  0.82981031  0.76099832    -0.80800
O1520       O  0.70594079  0.67800583  0.77243473    -0.79500
C1521       C  0.67675306  0.82798219  0.75908710     0.83100
C1522       C  0.73657331  0.75542458  0.66959943     0.82700
O1523       O  0.67354454  0.70978976  0.74001526    -0.78400
C1524       C  0.82095614  0.67997411  0.74891149     0.83500
O1525       O  0.67123127  0.79945556  0.74351128    -0.78500
C1526       C  0.82222727  0.82472761  0.74150216     0.83700
C1527       C  0.75494932  0.75975943  0.83454686     0.84000
O1528       O  0.75736663  0.78899246  0.81941079    -0.80900
C1529       C  0.75265522  0.73430746  0.88512534    -0.16400
C1530       C  0.75551417  0.76326066  0.86705443    -0.31600
H1531       H  0.75084366  0.70691912  0.87588173     0.12600
H1532       H  0.75769069  0.79059547  0.87634322     0.13200
C1533       C  0.75891872  0.75563937  0.61789806    -0.16400
C1534       C  0.73078669  0.75691970  0.63724330    -0.31600
H1535       H  0.78652551  0.75387072  0.62615894     0.12600
H1536       H  0.70309421  0.75903237  0.62925493     0.13200
C1537       C  0.62253527  0.91111644  0.78446955    -0.13300
C1538       C  0.59449929  0.91160448  0.76367144     0.08900
C1539       C  0.59308871  0.88410241  0.74202319    -0.13300
C1540       C  0.61939495  0.85658904  0.74098259    -0.13300
C1541       C  0.64791937  0.85622107  0.76140506     0.08900
C1542       C  0.64911691  0.88366527  0.78331599    -0.13300
H1543       H  0.62389127  0.93207011  0.80141905     0.12800
H1544       H  0.57169554  0.88417880  0.72574021     0.12800
H1545       H  0.61779730  0.83600146  0.72376960     0.12800
H1546       H  0.67063209  0.88396760  0.79948168     0.12800
C1547       C  0.90480691  0.87715097  0.71253745    -0.13300
C1548       C  0.90563434  0.90671334  0.73242213     0.08900
C1549       C  0.87871039  0.90944451  0.75471777    -0.13300
C1550       C  0.85155481  0.88299141  0.75737137    -0.13300
C1551       C  0.85086647  0.85295319  0.73791194     0.08900
C1552       C  0.87770671  0.85034533  0.71534196    -0.13300
H1553       H  0.92532949  0.87469968  0.69511119     0.12800
H1554       H  0.87897665  0.93200264  0.77030939     0.12800
H1555       H  0.83131538  0.88592603  0.77495867     0.12800
H1556       H  0.87780955  0.82762078  0.69992104     0.12800
C1557       C  0.90093877  0.62156867  0.72261972    -0.13300
C1558       C  0.90549749  0.59785680  0.74670373     0.08900
C1559       C  0.88198848  0.60081020  0.77144549    -0.13300
C1560       C  0.85444766  0.62734401  0.77218132    -0.13300
C1561       C  0.84985542  0.65139071  0.74811510     0.08900
C1562       C  0.87341447  0.64804104  0.72329105    -0.13300
H1563       H  0.91874790  0.61952663  0.70329024     0.12800
H1564       H  0.88518914  0.58274495  0.79025991     0.12800
H1565       H  0.83692909  0.62918716  0.79168805     0.12800
H1566       H  0.87059729  0.66589989  0.70431886     0.12800
C1567       C  0.62539305  0.59542838  0.77525627    -0.13300
C1568       C  0.59636266  0.59753049  0.75547375     0.08900
C1569       C  0.59469379  0.62682644  0.73550062    -0.13300
C1570       C  0.62126059  0.65411493  0.73573743    -0.13100
C1571       C  0.65018851  0.65241404  0.75579770     0.08900
C1572       C  0.65216700  0.62258677  0.77537341    -0.13300
H1573       H  0.62705637  0.57293100  0.79079175     0.12800
H1574       H  0.57258057  0.62868742  0.71993845     0.12800
H1575       H  0.61909040  0.67655749  0.72020824     0.12800
H1576       H  0.67416085  0.62042205  0.79100346     0.12800
C1577       C  0.61792720  0.85527608  0.52619027    -0.13300
C1578       C  0.64745452  0.85737873  0.50597124     0.08900
C1579       C  0.64896988  0.88690711  0.48592225    -0.13300
C1580       C  0.62354004  0.90468076  0.97989547    -0.13300
C1581       C  0.59218567  0.91125710  0.50613547     0.08900
C1582       C  0.59061024  0.88200173  0.52629270    -0.13300
H1583       H  0.61589858  0.83298590  0.54192623     0.12800
H1584       H  0.67126724  0.88945887  0.47002940     0.12800
H1585       H  0.62674908  0.92862632  0.96596795     0.12800
H1586       H  0.56817399  0.87991041  0.54210708     0.12800
C1587       C  0.87592000  0.90112899  0.97592167    -0.13300
C1588       C  0.90320045  0.90135984  0.99735759     0.08900
C1589       C  0.90833636  0.88033086  0.51709888    -0.13300
C1590       C  0.87561364  0.84780552  0.02037278    -0.13300
C1591       C  0.84826284  0.84726148  0.99884720     0.08900
C1592       C  0.84870969  0.87431523  0.97661814    -0.13300
H1593       H  0.87592654  0.92155276  0.95852518     0.12800
H1594       H  0.93081345  0.87839421  0.53230387     0.12800
H1595       H  0.88364483  0.83114398  0.53328056     0.12800
H1596       H  0.82813007  0.87470791  0.95967113     0.12800
C1597       C  0.90388755  0.62509472  0.51378689    -0.13300
C1598       C  0.90674708  0.59307056  0.00467092     0.08900
C1599       C  0.87940300  0.59289799  0.98335361    -0.13300
C1600       C  0.85185984  0.61904401  0.98418842    -0.13300
C1601       C  0.85114021  0.64629615  0.00624621     0.08900
C1602       C  0.87863490  0.64653709  0.02766299    -0.13300
H1603       H  0.92659643  0.62562397  0.52884347     0.12800
H1604       H  0.87945163  0.57239952  0.96598102     0.12800
H1605       H  0.83126885  0.61804369  0.96726488     0.12800
H1606       H  0.87947376  0.67270186  0.53322610     0.12800
C1607       C  0.59609732  0.62637312  0.53057747    -0.13300
C1608       C  0.59198990  0.60309270  0.50607333     0.08900
C1609       C  0.62235641  0.58815335  0.97768043    -0.13300
C1610       C  0.64878287  0.61563113  0.97785726    -0.13300
C1611       C  0.64635408  0.65758278  0.50534323     0.08900
C1612       C  0.62304880  0.65349590  0.53020846    -0.13300
H1613       H  0.57844683  0.62346642  0.54992663     0.12800
H1614       H  0.62210792  0.56859174  0.95962250     0.12800
H1615       H  0.66866256  0.61668600  0.95985454     0.12800
H1616       H  0.62584744  0.67101225  0.54942489     0.12800
loop_ 
_geom_bond_atom_site_label_1 
_geom_bond_atom_site_label_2 
_geom_bond_distance 
_geom_bond_site_symmetry_2 
_ccdc_geom_bond_type 
N1            C6   1.353   1_565  A
N1          C409   1.352       .  A
N1           H33   1.041   1_554  S
N2           C10   1.349   1_655  A
N2          C817   1.351       .  A
N3            C8   1.353   1_565  A
N3          C411   1.351       .  A
N3           H34   1.039       .  S
N4           C12   1.351       .  A
N4          C819   1.350   1_455  A
C5          N405   1.353       .  A
C5           C13   1.388       .  A
C5           C21   1.417       .  A
C6           C22   1.412       .  A
C6           C14   1.385       .  A
C7          N407   1.353       .  A
C7           C15   1.389   1_556  A
C7           C24   1.417       .  A
C8           C23   1.412       .  A
C8           C16   1.386   1_556  A
C9          N810   1.353       .  A
C9           C21   1.416       .  A
C9           C17   1.387       .  A
C10          C24   1.411       .  A
C10          C18   1.386       .  A
C11         N812   1.353       .  A
C11          C19   1.385   1_554  A
C11          C22   1.412       .  A
C12          C20   1.386       .  A
C12          C23   1.411       .  A
C13         C418   1.375       .  A
C13          H25   1.082       .  S
C14         C417   1.376   1_545  A
C14          H26   1.082       .  S
C15         C420   1.375       .  A
C15          H27   1.082       .  S
C16         C419   1.375   1_545  A
C16          H28   1.082       .  S
C17         C826   1.371   1_554  A
C17          H29   1.082   1_554  S
C18         C825   1.373   1_455  A
C18          H30   1.082       .  S
C19         C828   1.372       .  A
C19          H31   1.082       .  S
C20         C827   1.373   1_455  A
C20          H32   1.082       .  S
C21         C376   1.486       .  S
C22         C386   1.490       .  S
C23         C194   1.482       .  S
C24         C167   1.483       .  S
N35          C40   1.353       .  A
N35         C443   1.353       .  A
N35          H67   1.038       .  S
N36          C44   1.353       .  A
N36         C851   1.352       .  A
N37          C42   1.353       .  A
N37         C445   1.352       .  A
N37          H68   1.039       .  S
N38          C46   1.352       .  A
N38         C853   1.352       .  A
C39         N439   1.351   1_545  A
C39          C47   1.388       .  A
C39          C55   1.415       .  A
C40          C56   1.414       .  A
C40          C48   1.387       .  A
C41         N441   1.352   1_545  A
C41          C49   1.387       .  A
C41          C58   1.413       .  A
C42          C57   1.413       .  A
C42          C50   1.386       .  A
C43         N844   1.351       .  A
C43          C55   1.414       .  A
C43          C51   1.388       .  A
C44          C58   1.413       .  A
C44          C52   1.385       .  A
C45         N846   1.351       .  A
C45          C53   1.387       .  A
C45          C56   1.413       .  A
C46          C54   1.386       .  A
C46          C57   1.412       .  A
C47         C452   1.376   1_545  A
C47          H59   1.082       .  S
C48         C451   1.375       .  A
C48          H60   1.082       .  S
C49         C454   1.373   1_545  A
C49          H61   1.082       .  S
C50         C453   1.375       .  A
C50          H62   1.082       .  S
C51         C860   1.372   1_455  A
C51          H63   1.082       .  S
C52         C859   1.371       .  A
C52          H64   1.082       .  S
C53         C862   1.372   1_455  A
C53          H65   1.082       .  S
C54         C861   1.371       .  A
C54          H66   1.082       .  S
C55         C154   1.482       .  S
C56         C124   1.486       .  S
C57         C134   1.485       .  S
C58         C144   1.486       .  S
O69          C85   1.274       .  A
O69         Zn75   2.029       .  S
C70         C164   1.478       .  S
C70          O86   1.277   1_556  A
C70         O285   1.271       .  A
O71         C286   1.275       .  A
O71         Cd78   2.073       .  S
O72          C90   1.273       .  A
O72         Cd81   2.065       .  S
O73         C289   1.276       .  A
O73         Cd77   2.088       .  S
O74          C85   1.276       .  A
O74         Cd77   2.067       .  S
Zn75         O86   2.039       .  S
Zn75         O88   2.014       .  S
Zn75        O282   1.952       .  S
O76          C87   1.275       .  A
O76         Cd81   2.063       .  S
Cd77         O79   2.070       .  S
Cd77        O282   2.000       .  S
Cd78         O82   2.077       .  S
Cd78         O91   2.080       .  S
Cd78         O80   2.002       .  S
O79         C291   1.276   1_554  A
O80        Zn277   1.947       .  S
O80         Cd81   1.991       .  S
O80        Cd279   1.999       .  S
Cd81         O83   2.053       .  S
O82          C89   1.277       .  A
O83         C272   1.273       .  A
C84         C197   1.479       .  S
C84          O88   1.275   1_556  A
C84         O273   1.276       .  A
C85         C119   1.480       .  S
C87         C177   1.484       .  S
C87         O275   1.276       .  A
C89         C187   1.484       .  S
C89         O281   1.277       .  A
C90          O91   1.276       .  A
C90         C115   1.478       .  S
O92         C108   1.276       .  A
O92         Zn98   2.035       .  S
C93         C157   1.480       .  S
C93         O109   1.275       .  A
C93         O106   1.275       .  A
O94         C107   1.275       .  A
O94        Cd101   2.069       .  S
O95         C113   1.273       .  A
O95        Cd104   2.070       .  S
O96         C110   1.275       .  A
O96        Cd100   2.069       .  S
O97         C108   1.272       .  A
O97        Cd100   2.057       .  S
Zn98        O109   2.018       .  S
Zn98        O111   2.018       .  S
Zn98        O103   1.952       .  S
O99         C110   1.276       .  A
O99        Cd104   2.075       .  S
Cd100       O102   2.066       .  S
Cd100       O103   1.993       .  S
Cd101       O105   2.075       .  S
Cd101       O114   2.080       .  S
Cd101       O103   2.003       .  S
O102        C112   1.275       .  A
O103       Cd104   1.998       .  S
Cd104       O106   2.064       .  S
O105        C112   1.276       .  A
C107        C127   1.481       .  S
C107        O111   1.276       .  A
C108        C120   1.475       .  S
C110        C147   1.482       .  S
C112        C137   1.481       .  S
C113        O114   1.277       .  A
C113        C116   1.478       .  S
C115        C116   1.344       .  D
C115        H117   1.087       .  S
C116        H118   1.087       .  S
C119        C120   1.344       .  D
C119        H121   1.087       .  S
C120        H122   1.087       .  S
C123        C124   1.403       .  A
C123        C128   1.398       .  A
C123        H129   1.083       .  S
C124        C125   1.402       .  A
C125        C126   1.395       .  A
C125        H130   1.083       .  S
C126        C127   1.406       .  A
C126        H131   1.083       .  S
C127        C128   1.408       .  A
C128        H132   1.083       .  S
C133        C134   1.402       .  A
C133        C138   1.398       .  A
C133        H139   1.083       .  S
C134        C135   1.402       .  A
C135        C136   1.398       .  A
C135        H140   1.083       .  S
C136        C137   1.406       .  A
C136        H141   1.083       .  S
C137        C138   1.407       .  A
C138        H142   1.083       .  S
C143        C144   1.402       .  A
C143        C148   1.399       .  A
C143        H149   1.083       .  S
C144        C145   1.403       .  A
C145        C146   1.397       .  A
C145        H150   1.083       .  S
C146        C147   1.406       .  A
C146        H151   1.083       .  S
C147        C148   1.408       .  A
C148        H152   1.083       .  S
C153        C154   1.401       .  A
C153        C158   1.394       .  A
C153        H159   1.083       .  S
C154        C155   1.403       .  A
C155        C156   1.398       .  A
C155        H160   1.083       .  S
C156        C157   1.408       .  A
C156        H161   1.083       .  S
C157        C158   1.406       .  A
C158        H162   1.083       .  S
C163        C164   1.405   1_554  A
C163        C168   1.399       .  A
C163        H169   1.083       .  S
C164        C165   1.408       .  A
C165        C368   1.394       .  A
C165        H170   1.083       .  S
C166        C367   1.393       .  A
C166        C369   1.400       .  A
C166        H171   1.083       .  S
C167        C168   1.404   1_556  A
C167        C368   1.400       .  A
C168        H172   1.083       .  S
C173        C174   1.400       .  A
C173        C178   1.395       .  A
C173        H179   1.083       .  S
C174        C377   1.404       .  A
C174        C223   1.486       .  S
C175        C376   1.405       .  A
C175        C378   1.401       .  A
C175        H180   1.083       .  S
C176        C177   1.408       .  A
C176        C377   1.401       .  A
C176        H383   1.083       .  S
C177        C178   1.407       .  A
C178        H182   1.083       .  S
H181        C378   1.083       .  S
C183        C386   1.403       .  A
C183        C390   1.398       .  A
C183        H189   1.083       .  S
C184        C185   1.403       .  A
C184        C385   1.403       .  A
C184        C224   1.489       .  S
C185        C186   1.399       .  A
C185        H190   1.083       .  S
C186        C187   1.408       .  A
C186        H191   1.083       .  S
C187        C188   1.407       .  A
C188        C385   1.398       .  A
C188        H394   1.083       .  S
H192        C390   1.083       .  S
C193        C194   1.400   1_554  A
C193        C198   1.396       .  A
C193        H199   1.083       .  S
C194        C397   1.402       .  A
C195        C196   1.397       .  A
C195        C396   1.401       .  A
C195        H200   1.083       .  S
C196        C399   1.405       .  A
C196        H201   1.083       .  S
C197        C198   1.407   1_556  A
C197        C398   1.407       .  A
C198        H202   1.083       .  S
N203        C208   1.355       .  A
N203        C611   1.352   1_545  A
N203        H235   1.039       .  S
N204       C1019   1.350       .  A
N204        C212   1.348   1_655  A
N205        C210   1.351       .  A
N205        C613   1.352   1_545  A
N205        H236   1.039       .  S
N206       C1021   1.350       .  A
N206        C214   1.351   1_655  A
C207        N607   1.353       .  A
C207        C215   1.388       .  A
C207        C223   1.416       .  A
C208        C224   1.414       .  A
C208        C216   1.385       .  A
C209        N609   1.350       .  A
C209        C217   1.388       .  A
C209        C226   1.413       .  A
C210        C225   1.411       .  A
C210        C218   1.387       .  A
C211       N1012   1.352       .  A
C211        C223   1.414       .  A
C211        C219   1.386       .  A
C212        C226   1.410       .  A
C212        C220   1.387       .  A
C213       N1014   1.352       .  A
C213        C221   1.385       .  A
C213        C224   1.410       .  A
C214        C222   1.386       .  A
C214        C225   1.410       .  A
C215        C620   1.375       .  A
C215        H227   1.082       .  S
C216        C619   1.375   1_545  A
C216        H228   1.082       .  S
C217        C622   1.376       .  A
C217        H229   1.082       .  S
C218        C621   1.374   1_545  A
C218        H230   1.082       .  S
C219       C1028   1.372       .  A
C219        H231   1.082       .  S
C220       C1027   1.374   1_455  A
C220        H232   1.082       .  S
C221       C1030   1.370       .  A
C221        H233   1.082       .  S
C222       C1029   1.373   1_455  A
C222        H234   1.082       .  S
C225        C396   1.478       .  S
C226        C369   1.478       .  S
N237        C242   1.354       .  A
N237        C645   1.351       .  A
N237        H269   1.039       .  S
N238       C1053   1.351       .  A
N238        C246   1.350       .  A
N239        C244   1.353       .  A
N239        C647   1.355       .  A
N239        H270   1.039       .  S
N240       C1055   1.353       .  A
N240        C248   1.351       .  A
C241        N641   1.354       .  A
C241        C249   1.387       .  A
C241        C257   1.416       .  A
C242        C258   1.413       .  A
C242        C250   1.386       .  A
C243        N643   1.350       .  A
C243        C251   1.387       .  A
C243        C260   1.409       .  A
C244        C259   1.415       .  A
C244        C252   1.386       .  A
C245       N1046   1.351   1_455  A
C245        C257   1.412       .  A
C245        C253   1.386       .  A
C246        C260   1.410       .  A
C246        C254   1.386       .  A
C247       N1048   1.351       .  A
C247        C255   1.386       .  A
C247        C258   1.410       .  A
C248        C256   1.387       .  A
C248        C259   1.414       .  A
C249        C654   1.375   1_545  A
C249        H261   1.082       .  S
C250        C653   1.378       .  A
C250        H262   1.082       .  S
C251        C656   1.375   1_545  A
C251        H263   1.082       .  S
C252        C655   1.374       .  A
C252        H264   1.082       .  S
C253       C1062   1.372   1_455  A
C253        H265   1.082       .  S
C254       C1061   1.373       .  A
C254        H266   1.082       .  S
C255       C1064   1.372   1_455  A
C255        H267   1.082       .  S
C256       C1063   1.373       .  A
C256        H268   1.082       .  S
C257        C356   1.486       .  S
C258        C326   1.484       .  S
C259        C336   1.487       .  S
C260        C346   1.479       .  S
O271        C287   1.271       .  A
O271       Zn277   2.008       .  S
C272        C366   1.475       .  S
C272        O288   1.273       .  A
O273       Cd280   2.079       .  S
O274        C292   1.269       .  A
O274       Cd283   2.046       .  S
O275       Cd279   2.083       .  S
O276        C287   1.276       .  A
O276       Cd279   2.068       .  S
Zn277       O288   2.008       .  S
Zn277       O290   2.003       .  S
O278        C289   1.272   1_556  A
O278       Cd283   2.044       .  S
Cd279       O281   2.073       .  S
Cd280       O284   2.090       .  S
Cd280       O293   2.095       .  S
Cd280       O282   2.009   1_556  S
O282       Cd283   1.984   1_554  S
Cd283       O285   2.039       .  S
O284        C291   1.279       .  A
C286        C399   1.475       .  S
C286        O290   1.273       .  A
C287        C321   1.474       .  S
C289        C379   1.480       .  S
C291        C389   1.487   1_556  S
C292        O293   1.279       .  A
C292        C317   1.476       .  S
O294        C310   1.276       .  A
O294       Zn300   2.033       .  S
C295        C359   1.483       .  S
C295        O311   1.277       .  A
C295        O308   1.272       .  A
O296        C309   1.279       .  A
O296       Cd303   2.084       .  S
O297        C315   1.270       .  A
O297       Cd306   2.047       .  S
O298        C312   1.273       .  A
O298       Cd302   2.059       .  S
O299        C310   1.270       .  A
O299       Cd302   2.043       .  S
Zn300       O311   2.046       .  S
Zn300       O313   2.018       .  S
Zn300       O305   1.952       .  S
O301        C312   1.272       .  A
O301       Cd306   2.052       .  S
Cd302       O304   2.057       .  S
Cd302       O305   1.992       .  S
Cd303       O307   2.090       .  S
Cd303       O316   2.097       .  S
Cd303       O305   2.008       .  S
O304        C314   1.273       .  A
O305       Cd306   1.988       .  S
Cd306       O308   2.050       .  S
O307        C314   1.277       .  A
C309        C329   1.484       .  S
C309        O313   1.276       .  A
C310        C322   1.470       .  S
C312        C349   1.474       .  S
C314        C339   1.484       .  S
C315        O316   1.280       .  A
C315        C318   1.476       .  S
C317        C318   1.339       .  D
C317        H319   1.087       .  S
C318        H320   1.087       .  S
C321        C322   1.340       .  D
C321        H323   1.087       .  S
C322        H324   1.087       .  S
C325        C326   1.402       .  A
C325        C330   1.399       .  A
C325        H331   1.083       .  S
C326        C327   1.401       .  A
C327        C328   1.398       .  A
C327        H332   1.083       .  S
C328        C329   1.409       .  A
C328        H333   1.083       .  S
C329        C330   1.407       .  A
C330        H334   1.083       .  S
C335        C336   1.402       .  A
C335        C340   1.396       .  A
C335        H341   1.083       .  S
C336        C337   1.404       .  A
C337        C338   1.400       .  A
C337        H342   1.083       .  S
C338        C339   1.407       .  A
C338        H343   1.083       .  S
C339        C340   1.408       .  A
C340        H344   1.083       .  S
C345        C346   1.402       .  A
C345        C350   1.396       .  A
C345        H351   1.083       .  S
C346        C347   1.401       .  A
C347        C348   1.393       .  A
C347        H352   1.083       .  S
C348        C349   1.405       .  A
C348        H353   1.083       .  S
C349        C350   1.406       .  A
C350        H354   1.083       .  S
C355        C356   1.401       .  A
C355        C360   1.395       .  A
C355        H361   1.083       .  S
C356        C357   1.404       .  A
C357        C358   1.401       .  A
C357        H362   1.083       .  S
C358        C359   1.406       .  A
C358        H363   1.083       .  S
C359        C360   1.408       .  A
C360        H364   1.083       .  S
C365        C366   1.406       .  A
C365        C370   1.396       .  A
C365        H371   1.083       .  S
C366        C367   1.406       .  A
C367        H372   1.083       .  S
C368        H373   1.083       .  S
C369        C370   1.402       .  A
C370        H374   1.083       .  S
C375        C376   1.400   1_556  A
C375        C380   1.393       .  A
C375        H381   1.083       .  S
C377        H382   1.083       .  S
C378        C379   1.406       .  A
C379        C380   1.407   1_554  A
C380        H384   1.083       .  S
C385        H391   1.083       .  S
C386        C387   1.405   1_554  A
C387        C388   1.401       .  A
C387        H392   1.083       .  S
C388        C389   1.407   1_556  A
C388        H393   1.083       .  S
C389        C390   1.408       .  A
C395        C396   1.400       .  A
C395        C400   1.396       .  A
C395        H401   1.083       .  S
C397        C398   1.400       .  A
C397        H402   1.083       .  S
C398        H403   1.083       .  S
C399        C400   1.406       .  A
C400        H404   1.083       .  S
N405        C410   1.354       .  A
N405        H437   1.037   1_554  S
N406       C1221   1.351       .  A
N406        C414   1.350   1_655  A
N407        C412   1.354       .  A
N407        H438   1.040       .  S
N408       C1223   1.353   1_454  A
N408        C416   1.354   1_554  A
C409        C417   1.388       .  A
C409        C425   1.415       .  A
C410        C426   1.416       .  A
C410        C418   1.387       .  A
C411        C419   1.388   1_556  A
C411        C428   1.415       .  A
C412        C427   1.414       .  A
C412        C420   1.386   1_556  A
C413       N1214   1.348   1_556  A
C413        C425   1.409   1_556  A
C413        C421   1.386       .  A
C414        C428   1.411       .  A
C414        C422   1.387       .  A
C415       N1216   1.352   1_556  A
C415        C423   1.386       .  A
C415        C426   1.412   1_556  A
C416        C424   1.386       .  A
C416        C427   1.417       .  A
C417        H429   1.082       .  S
C418        H430   1.082       .  S
C419        H431   1.082       .  S
C420        H432   1.082       .  S
C421       C1230   1.373       .  A
C421        H433   1.082       .  S
C422       C1229   1.371   1_455  A
C422        H434   1.082       .  S
C423       C1232   1.370       .  A
C423        H435   1.082       .  S
C424       C1231   1.373   1_455  A
C424        H436   1.082       .  S
C425        C780   1.482       .  S
C426        C790   1.486   1_554  S
C427        C598   1.495       .  S
C428        C571   1.480       .  S
N439        C444   1.353       .  A
N439        H471   1.040       .  S
N440       C1255   1.351       .  A
N440        C448   1.349       .  A
N441        C446   1.353       .  A
N441        H472   1.039       .  S
N442       C1257   1.352       .  A
N442        C450   1.352       .  A
C443        C451   1.387       .  A
C443        C459   1.414       .  A
C444        C460   1.415       .  A
C444        C452   1.387       .  A
C445        C453   1.388       .  A
C445        C462   1.415       .  A
C446        C461   1.414       .  A
C446        C454   1.387       .  A
C447       N1248   1.350       .  A
C447        C459   1.410       .  A
C447        C455   1.386       .  A
C448        C462   1.411       .  A
C448        C456   1.387       .  A
C449       N1250   1.353       .  A
C449        C457   1.386       .  A
C449        C460   1.414       .  A
C450        C458   1.386       .  A
C450        C461   1.414       .  A
C451        H463   1.082       .  S
C452        H464   1.082       .  S
C453        H465   1.082       .  S
C454        H466   1.082       .  S
C455       C1264   1.371   1_455  A
C455        H467   1.082       .  S
C456       C1263   1.372       .  A
C456        H468   1.082       .  S
C457       C1266   1.372   1_455  A
C457        H469   1.082       .  S
C458       C1265   1.372       .  A
C458        H470   1.082       .  S
C459        C558   1.481       .  S
C460        C528   1.489       .  S
C461        C538   1.485       .  S
C462        C548   1.482       .  S
O473        C489   1.273       .  A
O473       Zn479   2.019       .  S
C474        C568   1.473       .  S
C474        O490   1.275   1_556  A
C474        O689   1.270       .  A
O475        C690   1.278       .  A
O475       Cd482   2.086       .  S
O476        C494   1.270       .  A
O476       Cd485   2.050       .  S
O477        C693   1.276       .  A
O477       Cd481   2.087       .  S
O478        C489   1.277       .  A
O478       Cd481   2.082       .  S
Zn479       O490   2.024       .  S
Zn479       O492   2.005       .  S
Zn479       O686   1.941   1_554  S
O480        C491   1.272       .  A
O480       Cd485   2.050       .  S
Cd481       O483   2.064       .  S
Cd481       O686   2.003   1_554  S
Cd482       O486   2.099       .  S
Cd482       O495   2.100       .  S
Cd482       O484   2.005       .  S
O483        C695   1.276   1_554  A
O484       Zn681   1.950       .  S
O484       Cd683   1.996       .  S
O484       Cd485   1.990       .  S
Cd485       O487   2.043       .  S
O486        C493   1.280       .  A
O487        C676   1.271       .  A
C488        C601   1.488       .  S
C488        O677   1.279       .  A
C488        O492   1.274   1_556  A
C489        C523   1.480       .  S
C491        C581   1.477       .  S
C491        O679   1.274       .  A
C493        C591   1.486       .  S
C493        O685   1.274       .  A
C494        O495   1.280       .  A
C494        C519   1.479       .  S
O496        C512   1.277       .  A
O496       Zn502   2.046       .  S
C497        C561   1.478       .  S
C497        O513   1.277       .  A
C497        O510   1.272       .  A
O498        C511   1.277       .  A
O498       Cd505   2.070       .  S
O499        C517   1.270       .  A
O499       Cd508   2.051       .  S
O500        C514   1.274       .  A
O500       Cd504   2.061       .  S
O501        C512   1.272       .  A
O501       Cd504   2.059       .  S
Zn502       O513   2.037       .  S
Zn502       O515   2.037       .  S
Zn502       O507   1.957       .  S
O503        C514   1.273       .  A
O503       Cd508   2.056       .  S
Cd504       O506   2.058       .  S
Cd504       O507   1.993       .  S
Cd505       O509   2.079       .  S
Cd505       O518   2.098       .  S
Cd505       O507   2.004       .  S
O506        C516   1.274       .  A
O507       Cd508   1.993       .  S
Cd508       O510   2.046       .  S
O509        C516   1.276       .  A
C511        C531   1.486       .  S
C511        O515   1.278       .  A
C512        C524   1.479       .  S
C514        C551   1.476       .  S
C516        C541   1.481       .  S
C517        O518   1.278       .  A
C517        C520   1.477       .  S
C519        C520   1.340       .  D
C519        H521   1.087       .  S
C520        H522   1.087       .  S
C523        C524   1.343       .  D
C523        H525   1.087       .  S
C524        H526   1.087       .  S
C527        C528   1.402       .  A
C527        C532   1.397       .  A
C527        H533   1.083       .  S
C528        C529   1.404       .  A
C529        C530   1.401       .  A
C529        H534   1.083       .  S
C530        C531   1.408       .  A
C530        H535   1.083       .  S
C531        C532   1.408       .  A
C532        H536   1.083       .  S
C537        C538   1.402       .  A
C537        C542   1.396       .  A
C537        H543   1.083       .  S
C538        C539   1.403       .  A
C539        C540   1.398       .  A
C539        H544   1.083       .  S
C540        C541   1.406       .  A
C540        H545   1.083       .  S
C541        C542   1.408       .  A
C542        H546   1.083       .  S
C547        C548   1.402       .  A
C547        C552   1.394       .  A
C547        H553   1.083       .  S
C548        C549   1.402       .  A
C549        C550   1.396       .  A
C549        H554   1.083       .  S
C550        C551   1.407       .  A
C550        H555   1.083       .  S
C551        C552   1.405       .  A
C552        H556   1.083       .  S
C557        C558   1.400       .  A
C557        C562   1.395       .  A
C557        H563   1.083       .  S
C558        C559   1.403       .  A
C559        C560   1.398       .  A
C559        H564   1.083       .  S
C560        C561   1.406       .  A
C560        H565   1.083       .  S
C561        C562   1.408       .  A
C562        H566   1.083       .  S
C567        C568   1.404   1_554  A
C567        C572   1.396       .  A
C567        H573   1.083       .  S
C568        C569   1.407       .  A
C569        C772   1.392       .  A
C569        H574   1.083       .  S
C570        C771   1.394       .  A
C570        C773   1.400       .  A
C570        H575   1.083       .  S
C571        C772   1.400       .  A
C571        C572   1.403   1_556  A
C572        H576   1.083       .  S
C577        C578   1.399       .  A
C577        C582   1.393       .  A
C577        H583   1.083       .  S
C578        C781   1.403       .  A
C578        C627   1.479       .  S
C579        C780   1.405       .  A
C579        C782   1.398       .  A
C579        H584   1.083       .  S
C580        C781   1.398       .  A
C580        C581   1.406       .  A
C580        H787   1.083       .  S
C581        C582   1.407       .  A
C582        H586   1.083       .  S
H585        C782   1.083       .  S
C587        C790   1.402   1_554  A
C587        C794   1.397       .  A
C587        H593   1.083       .  S
C588        C789   1.402       .  A
C588        C589   1.405       .  A
C588        C628   1.490       .  S
C589        C590   1.400       .  A
C589        H594   1.083       .  S
C590        C591   1.406       .  A
C590        H595   1.083       .  S
C591        C592   1.410       .  A
C592        C789   1.398       .  A
C592        H798   1.083       .  S
H596        C794   1.083       .  S
C597        C598   1.402   1_554  A
C597        C602   1.396       .  A
C597        H603   1.083       .  S
C598        C801   1.407       .  A
C599        C800   1.405       .  A
C599        C600   1.401       .  A
C599        H604   1.083       .  S
C600        C803   1.408       .  A
C600        H605   1.083       .  S
C601        C802   1.407       .  A
C601        C602   1.408   1_556  A
C602        H606   1.083       .  S
N607        C612   1.353       .  A
N607        H639   1.037       .  S
N608       C1423   1.350       .  A
N608        C616   1.349   1_655  A
N609        C614   1.353       .  A
N609        H640   1.041       .  S
N610       C1425   1.350       .  A
N610        C618   1.354   1_655  A
C611        C619   1.388       .  A
C611        C627   1.415       .  A
C612        C628   1.414       .  A
C612        C620   1.386       .  A
C613        C621   1.388       .  A
C613        C630   1.413       .  A
C614        C629   1.412       .  A
C614        C622   1.386       .  A
C615       N1416   1.349       .  A
C615        C627   1.411       .  A
C615        C623   1.387       .  A
C616        C630   1.409       .  A
C616        C624   1.386       .  A
C617       N1418   1.354       .  A
C617        C625   1.387       .  A
C617        C628   1.416       .  A
C618        C626   1.385       .  A
C618        C629   1.414       .  A
C619        H631   1.082       .  S
C620        H632   1.082       .  S
C621        H633   1.082       .  S
C622        H634   1.082       .  S
C623       C1432   1.372       .  A
C623        H635   1.082       .  S
C624       C1431   1.371   1_455  A
C624        H636   1.082       .  S
C625       C1434   1.371       .  A
C625        H637   1.082       .  S
C626       C1433   1.374   1_455  A
C626        H638   1.082       .  S
C629        C800   1.494       .  S
C630        C773   1.480       .  S
N641        C646   1.352   1_545  A
N641        H673   1.035       .  S
N642       C1457   1.350       .  A
N642        C650   1.351       .  A
N643        C648   1.352   1_545  A
N643        H674   1.040       .  S
N644       C1459   1.350       .  A
N644        C652   1.351       .  A
C645        C653   1.388       .  A
C645        C661   1.416       .  A
C646        C662   1.412       .  A
C646        C654   1.386       .  A
C647        C655   1.387       .  A
C647        C664   1.416       .  A
C648        C663   1.411       .  A
C648        C656   1.387       .  A
C649       N1450   1.351       .  A
C649        C661   1.414       .  A
C649        C657   1.387       .  A
C650        C664   1.410       .  A
C650        C658   1.386       .  A
C651       N1452   1.352       .  A
C651        C659   1.386       .  A
C651        C662   1.413       .  A
C652        C660   1.385       .  A
C652        C663   1.412       .  A
C653        H665   1.082       .  S
C654        H666   1.082       .  S
C655        H667   1.082       .  S
C656        H668   1.082       .  S
C657       C1466   1.372   1_455  A
C657        H669   1.082       .  S
C658       C1465   1.372       .  A
C658        H670   1.082       .  S
C659       C1468   1.372   1_455  A
C659        H671   1.082       .  S
C660       C1467   1.374       .  A
C660        H672   1.082       .  S
C661        C760   1.484       .  S
C662        C730   1.482       .  S
C663        C740   1.485       .  S
C664        C750   1.488       .  S
O675        C691   1.273       .  A
O675       Zn681   2.018       .  S
C676        C770   1.475       .  S
C676        O692   1.275       .  A
O677       Cd684   2.099       .  S
O678        C696   1.267       .  A
O678       Cd687   2.033       .  S
O679       Cd683   2.073       .  S
O680        C691   1.273       .  A
O680       Cd683   2.054       .  S
Zn681       O692   2.024       .  S
Zn681       O694   2.030       .  S
O682        C693   1.270   1_556  A
O682       Cd687   2.036       .  S
Cd683       O685   2.057       .  S
Cd684       O688   2.089       .  S
Cd684       O697   2.103       .  S
Cd684       O686   2.011       .  S
O686       Cd687   1.984       .  S
Cd687       O689   2.034       .  S
O688        C695   1.280       .  A
C690        C803   1.490       .  S
C690        O694   1.277       .  A
C691        C725   1.472       .  S
C693        C783   1.479       .  S
C695        C793   1.484       .  S
C696        O697   1.280       .  A
C696        C721   1.474       .  S
O698        C714   1.275       .  A
O698       Zn704   2.017       .  S
C699        C763   1.481       .  S
C699        O715   1.276       .  A
C699        O712   1.271       .  A
O700        C713   1.279       .  A
O700       Cd707   2.093       .  S
O701        C719   1.268       .  A
O701       Cd710   2.035       .  S
O702        C716   1.275       .  A
O702       Cd706   2.076       .  S
O703        C714   1.272       .  A
O703       Cd706   2.056       .  S
Zn704       O715   2.043       .  S
Zn704       O717   2.008       .  S
Zn704       O709   1.948       .  S
O705        C716   1.272       .  A
O705       Cd710   2.051       .  S
Cd706       O708   2.056       .  S
Cd706       O709   1.995       .  S
Cd707       O711   2.091       .  S
Cd707       O720   2.099       .  S
Cd707       O709   2.011       .  S
O708        C718   1.274       .  A
O709       Cd710   1.983       .  S
Cd710       O712   2.041       .  S
O711        C718   1.278       .  A
C713        C733   1.483       .  S
C713        O717   1.275       .  A
C714        C726   1.470       .  S
C716        C753   1.480       .  S
C718        C743   1.484       .  S
C719        O720   1.280       .  A
C719        C722   1.474       .  S
C721        C722   1.336       .  D
C721        H723   1.087       .  S
C722        H724   1.087       .  S
C725        C726   1.343       .  D
C725        H727   1.087       .  S
C726        H728   1.087       .  S
C729        C730   1.403       .  A
C729        C734   1.400       .  A
C729        H735   1.083       .  S
C730        C731   1.399       .  A
C731        C732   1.396       .  A
C731        H736   1.083       .  S
C732        C733   1.409       .  A
C732        H737   1.083       .  S
C733        C734   1.406       .  A
C734        H738   1.083       .  S
C739        C740   1.400       .  A
C739        C744   1.396       .  A
C739        H745   1.083       .  S
C740        C741   1.404       .  A
C741        C742   1.400       .  A
C741        H746   1.083       .  S
C742        C743   1.407       .  A
C742        H747   1.083       .  S
C743        C744   1.409       .  A
C744        H748   1.083       .  S
C749        C750   1.405       .  A
C749        C754   1.399       .  A
C749        H755   1.083       .  S
C750        C751   1.402       .  A
C751        C752   1.396       .  A
C751        H756   1.083       .  S
C752        C753   1.407       .  A
C752        H757   1.083       .  S
C753        C754   1.405       .  A
C754        H758   1.083       .  S
C759        C760   1.399       .  A
C759        C764   1.392       .  A
C759        H765   1.083       .  S
C760        C761   1.405       .  A
C761        C762   1.402       .  A
C761        H766   1.083       .  S
C762        C763   1.407       .  A
C762        H767   1.083       .  S
C763        C764   1.407       .  A
C764        H768   1.083       .  S
C769        C770   1.405       .  A
C769        C774   1.396       .  A
C769        H775   1.083       .  S
C770        C771   1.407       .  A
C771        H776   1.083       .  S
C772        H777   1.083       .  S
C773        C774   1.403       .  A
C774        H778   1.083       .  S
C779        C780   1.399   1_556  A
C779        C784   1.393       .  A
C779        H785   1.083       .  S
C781        H786   1.083       .  S
C782        C783   1.405       .  A
C783        C784   1.408   1_554  A
C784        H788   1.083       .  S
C789        H795   1.083       .  S
C790        C791   1.402       .  A
C791        C792   1.399       .  A
C791        H796   1.083       .  S
C792        C793   1.407       .  A
C792        H797   1.083       .  S
C793        C794   1.409   1_556  A
C799        C800   1.404       .  A
C799        C804   1.401       .  A
C799        H805   1.083       .  S
C801        C802   1.404       .  A
C801        H806   1.083       .  S
C802        H807   1.083       .  S
C803        C804   1.409       .  A
C804        H808   1.083       .  S
N809        C814   1.351   1_566  A
N809       C1217   1.353   1_556  A
N809        H841   1.040       .  S
N810        C818   1.354       .  A
N811        C816   1.351   1_565  A
N811       C1219   1.354       .  A
N811        H842   1.040   1_554  S
N812        C820   1.350       .  A
C813       N1213   1.354       .  A
C813        C821   1.386   1_556  A
C813        C829   1.414       .  A
C814        C830   1.413   1_554  A
C814        C822   1.388       .  A
C815       N1215   1.354       .  A
C815        C823   1.387       .  A
C815        C832   1.417       .  A
C816        C831   1.414       .  A
C816        C824   1.388       .  A
C817        C829   1.412       .  A
C817        C825   1.386       .  A
C818        C832   1.416       .  A
C818        C826   1.385   1_554  A
C819        C827   1.387       .  A
C819        C830   1.411       .  A
C820        C828   1.387   1_554  A
C820        C831   1.412       .  A
C821       C1226   1.375       .  A
C821        H833   1.082       .  S
C822       C1225   1.375   1_545  A
C822        H834   1.082       .  S
C823       C1228   1.374       .  A
C823        H835   1.082       .  S
C824       C1227   1.377   1_545  A
C824        H836   1.082       .  S
C825        H837   1.082       .  S
C826        H838   1.082       .  S
C827        H839   1.082       .  S
C828        H840   1.082       .  S
C829       C1184   1.486       .  S
C830       C1194   1.479       .  S
C831       C1002   1.481       .  S
C832        C975   1.493       .  S
N843        C848   1.352       .  A
N843       C1251   1.355       .  A
N843        H875   1.040       .  S
N844        C852   1.352   1_455  A
N845        C850   1.352       .  A
N845       C1253   1.351       .  A
N845        H876   1.038       .  S
N846        C854   1.351   1_455  A
C847       N1247   1.355   1_545  A
C847        C855   1.387       .  A
C847        C863   1.418       .  A
C848        C864   1.414       .  A
C848        C856   1.386       .  A
C849       N1249   1.354   1_545  A
C849        C857   1.386       .  A
C849        C866   1.413       .  A
C850        C865   1.414       .  A
C850        C858   1.388       .  A
C851        C863   1.416       .  A
C851        C859   1.387       .  A
C852        C866   1.410       .  A
C852        C860   1.385       .  A
C853        C861   1.387       .  A
C853        C864   1.413       .  A
C854        C862   1.386       .  A
C854        C865   1.412       .  A
C855       C1260   1.375   1_545  A
C855        H867   1.082       .  S
C856       C1259   1.374       .  A
C856        H868   1.082       .  S
C857       C1262   1.375   1_545  A
C857        H869   1.082       .  S
C858       C1261   1.375       .  A
C858        H870   1.082       .  S
C859        H871   1.082       .  S
C860        H872   1.082       .  S
C861        H873   1.082       .  S
C862        H874   1.082       .  S
C863        C962   1.490       .  S
C864        C932   1.485       .  S
C865        C942   1.484       .  S
C866        C952   1.484       .  S
O877        C893   1.278       .  A
O877       Zn883   2.045       .  S
C878        C972   1.488       .  S
C878        O894   1.278       .  A
C878       O1093   1.277   1_554  A
O879       C1094   1.271       .  A
O879       Cd886   2.040       .  S
O880        C898   1.278       .  A
O880       Cd889   2.087       .  S
O881       C1097   1.274   1_554  A
O881       Cd885   2.056       .  S
O882        C893   1.270       .  A
O882       Cd885   2.048       .  S
Zn883       O894   2.041       .  S
Zn883       O896   2.035       .  S
Zn883      O1090   1.958   1_554  S
O884        C895   1.276       .  A
O884       Cd889   2.069       .  S
Cd885       O887   2.062       .  S
Cd885      O1090   1.989   1_554  S
Cd886       O890   2.048       .  S
Cd886       O899   2.056       .  S
Cd886       O888   1.990       .  S
O887       C1099   1.273   1_554  A
O888      Zn1085   1.946       .  S
O888      Cd1087   2.009       .  S
O888       Cd889   2.005       .  S
Cd889       O891   2.091       .  S
O890        C897   1.272       .  A
O891       C1080   1.277       .  A
C892       C1005   1.480       .  S
C892       O1081   1.273   1_554  A
C892        O896   1.276       .  A
C893        C927   1.475       .  S
C895        C985   1.487       .  S
C895       O1083   1.279       .  A
C897        C995   1.481       .  S
C897       O1089   1.277       .  A
C898        O899   1.271       .  A
C898        C923   1.477       .  S
O900        C916   1.271       .  A
O900       Zn906   2.010       .  S
C901        C965   1.484       .  S
C901        O917   1.275       .  A
C901        O914   1.276       .  A
O902        C915   1.274       .  A
O902       Cd909   2.062       .  S
O903        C921   1.278       .  A
O903       Cd912   2.086       .  S
O904        C918   1.278       .  A
O904       Cd908   2.082       .  S
O905        C916   1.277       .  A
O905       Cd908   2.080       .  S
Zn906       O917   2.017       .  S
Zn906       O919   2.022       .  S
Zn906       O911   1.946       .  S
O907        C918   1.277       .  A
O907       Cd912   2.079       .  S
Cd908       O910   2.084       .  S
Cd908       O911   2.006       .  S
Cd909       O913   2.057       .  S
Cd909       O922   2.059       .  S
Cd909       O911   1.993       .  S
O910        C920   1.276       .  A
O911       Cd912   2.005       .  S
Cd912       O914   2.080       .  S
O913        C920   1.274       .  A
C915        C935   1.478       .  S
C915        O919   1.275       .  A
C916        C928   1.477       .  S
C918        C955   1.485       .  S
C920        C945   1.482       .  S
C921        O922   1.272       .  A
C921        C924   1.476       .  S
C923        C924   1.341       .  D
C923        H925   1.087       .  S
C924        H926   1.087       .  S
C927        C928   1.341       .  D
C927        H929   1.087       .  S
C928        H930   1.087       .  S
C931        C932   1.403       .  A
C931        C936   1.397       .  A
C931        H937   1.083       .  S
C932        C933   1.403       .  A
C933        C934   1.398       .  A
C933        H938   1.083       .  S
C934        C935   1.406       .  A
C934        H939   1.083       .  S
C935        C936   1.406       .  A
C936        H940   1.083       .  S
C941        C942   1.404       .  A
C941        C946   1.401       .  A
C941        H947   1.083       .  S
C942        C943   1.400       .  A
C943        C944   1.393       .  A
C943        H948   1.083       .  S
C944        C945   1.407       .  A
C944        H949   1.083       .  S
C945        C946   1.408       .  A
C946        H950   1.083       .  S
C951        C952   1.401       .  A
C951        C956   1.398       .  A
C951        H957   1.083       .  S
C952        C953   1.402       .  A
C953        C954   1.401       .  A
C953        H958   1.083       .  S
C954        C955   1.409       .  A
C954        H959   1.083       .  S
C955        C956   1.407       .  A
C956        H960   1.083       .  S
C961        C962   1.404       .  A
C961        C966   1.401       .  A
C961        H967   1.083       .  S
C962        C963   1.403       .  A
C963        C964   1.397       .  A
C963        H968   1.083       .  S
C964        C965   1.407       .  A
C964        H969   1.083       .  S
C965        C966   1.408       .  A
C966        H970   1.083       .  S
C971        C972   1.408       .  A
C971        C976   1.401       .  A
C971        H977   1.083       .  S
C972        C973   1.408   1_554  A
C973       C1176   1.399       .  A
C973        H978   1.083       .  S
C974       C1175   1.404       .  A
C974       C1177   1.406       .  A
C974        H979   1.083       .  S
C975       C1176   1.403   1_554  A
C975        C976   1.404       .  A
C976        H980   1.083       .  S
C981        C982   1.403       .  A
C981        C986   1.399       .  A
C981        H987   1.083       .  S
C982       C1185   1.406       .  A
C982       C1031   1.493       .  S
C983       C1184   1.400   1_554  A
C983       C1186   1.394       .  A
C983        H988   1.083       .  S
C984       C1185   1.400       .  A
C984        C985   1.406       .  A
C984       H1191   1.083       .  S
C985        C986   1.409       .  A
C986        H990   1.083       .  S
H989       C1186   1.083       .  S
C991       C1194   1.401   1_554  A
C991       C1198   1.396       .  A
C991        H997   1.083       .  S
C992       C1193   1.404       .  A
C992        C993   1.401       .  A
C992       C1032   1.484       .  S
C993        C994   1.394       .  A
C993        H998   1.083       .  S
C994        C995   1.408       .  A
C994        H999   1.083       .  S
C995        C996   1.406       .  A
C996       C1193   1.399       .  A
C996       H1202   1.083       .  S
H1000      C1198   1.083       .  S
C1001      C1002   1.404       .  A
C1001      C1006   1.400       .  A
C1001      H1007   1.083       .  S
C1002      C1205   1.399   1_554  A
C1003      C1204   1.398       .  A
C1003      C1004   1.390       .  A
C1003      H1008   1.083       .  S
C1004      C1207   1.405       .  A
C1004      H1009   1.083       .  S
C1005      C1206   1.407   1_554  A
C1005      C1006   1.407       .  A
C1006      H1010   1.083       .  S
N1011      C1016   1.352       .  A
N1011      C1419   1.352   1_545  A
N1011      H1043   1.040       .  S
N1012      C1020   1.352       .  A
N1013      C1018   1.351       .  A
N1013      C1421   1.354   1_545  A
N1013      H1044   1.039       .  S
N1014      C1022   1.349       .  A
C1015      N1415   1.356       .  A
C1015      C1023   1.386       .  A
C1015      C1031   1.416       .  A
C1016      C1032   1.413       .  A
C1016      C1024   1.387       .  A
C1017      N1417   1.356       .  A
C1017      C1025   1.387       .  A
C1017      C1034   1.417       .  A
C1018      C1033   1.413       .  A
C1018      C1026   1.387       .  A
C1019      C1031   1.409       .  A
C1019      C1027   1.385       .  A
C1020      C1034   1.416       .  A
C1020      C1028   1.386       .  A
C1021      C1029   1.387       .  A
C1021      C1032   1.412       .  A
C1022      C1030   1.387       .  A
C1022      C1033   1.410       .  A
C1023      C1428   1.375       .  A
C1023      H1035   1.082       .  S
C1024      C1427   1.374   1_545  A
C1024      H1036   1.082       .  S
C1025      C1430   1.375       .  A
C1025      H1037   1.082       .  S
C1026      C1429   1.375   1_545  A
C1026      H1038   1.082       .  S
C1027      H1039   1.082       .  S
C1028      H1040   1.082       .  S
C1029      H1041   1.082       .  S
C1030      H1042   1.082       .  S
C1033      C1204   1.476       .  S
C1034      C1177   1.492       .  S
N1045      C1050   1.353       .  A
N1045      C1453   1.352       .  A
N1045      H1077   1.039       .  S
N1046      C1054   1.350       .  A
N1047      C1052   1.352       .  A
N1047      C1455   1.354       .  A
N1047      H1078   1.040       .  S
N1048      C1056   1.349   1_455  A
C1049      N1449   1.355       .  A
C1049      C1057   1.387       .  A
C1049      C1065   1.417       .  A
C1050      C1066   1.413       .  A
C1050      C1058   1.387       .  A
C1051      N1451   1.353       .  A
C1051      C1059   1.386       .  A
C1051      C1068   1.412       .  A
C1052      C1067   1.415       .  A
C1052      C1060   1.388       .  A
C1053      C1065   1.411       .  A
C1053      C1061   1.386       .  A
C1054      C1068   1.411       .  A
C1054      C1062   1.386       .  A
C1055      C1063   1.385       .  A
C1055      C1066   1.412       .  A
C1056      C1064   1.387       .  A
C1056      C1067   1.411       .  A
C1057      C1462   1.376   1_545  A
C1057      H1069   1.082       .  S
C1058      C1461   1.375       .  A
C1058      H1070   1.082       .  S
C1059      C1464   1.376   1_545  A
C1059      H1071   1.082       .  S
C1060      C1463   1.375       .  A
C1060      H1072   1.082       .  S
C1061      H1073   1.082       .  S
C1062      H1074   1.082       .  S
C1063      H1075   1.082       .  S
C1064      H1076   1.082       .  S
C1065      C1164   1.491       .  S
C1066      C1134   1.486       .  S
C1067      C1144   1.482       .  S
C1068      C1154   1.479       .  S
O1079      C1095   1.271       .  A
O1079     Zn1085   2.004       .  S
C1080      C1174   1.487       .  S
C1080      O1096   1.275       .  A
O1081     Cd1088   2.048       .  S
O1082      C1100   1.277       .  A
O1082     Cd1091   2.078       .  S
O1083     Cd1087   2.091       .  S
O1084      C1095   1.279       .  A
O1084     Cd1087   2.088       .  S
Zn1085     O1096   2.010       .  S
Zn1085     O1098   2.017       .  S
O1086      C1097   1.277       .  A
O1086     Cd1091   2.088       .  S
Cd1087     O1089   2.087       .  S
Cd1088     O1092   2.061       .  S
Cd1088     O1101   2.056       .  S
Cd1088     O1090   1.994       .  S
O1090     Cd1091   2.002       .  S
Cd1091     O1093   2.077       .  S
O1092      C1099   1.273       .  A
C1094      C1207   1.472       .  S
C1094      O1098   1.273       .  A
C1095      C1129   1.478       .  S
C1097      C1187   1.484       .  S
C1099      C1197   1.474       .  S
C1100      O1101   1.271       .  A
C1100      C1125   1.475       .  S
O1102      C1118   1.280       .  A
O1102     Zn1108   2.056       .  S
C1103      C1167   1.486       .  S
C1103      O1119   1.279       .  A
C1103      O1116   1.276       .  A
O1104      C1117   1.274       .  A
O1104     Cd1111   2.056       .  S
O1105      C1123   1.277       .  A
O1105     Cd1114   2.081       .  S
O1106      C1120   1.272       .  A
O1106     Cd1110   2.051       .  S
O1107      C1118   1.269       .  A
O1107     Cd1110   2.042       .  S
Zn1108     O1119   2.045       .  S
Zn1108     O1121   2.044       .  S
Zn1108     O1113   1.960       .  S
O1109      C1120   1.276       .  A
O1109     Cd1114   2.086       .  S
Cd1110     O1112   2.056       .  S
Cd1110     O1113   1.988       .  S
Cd1111     O1115   2.062       .  S
Cd1111     O1124   2.051       .  S
Cd1111     O1113   1.992       .  S
O1112      C1122   1.273       .  A
O1113     Cd1114   2.003       .  S
Cd1114     O1116   2.062       .  S
O1115      C1122   1.274       .  A
C1117      C1137   1.484       .  S
C1117      O1121   1.278       .  A
C1118      C1130   1.476       .  S
C1120      C1157   1.479       .  S
C1122      C1147   1.476       .  S
C1123      O1124   1.270       .  A
C1123      C1126   1.473       .  S
C1125      C1126   1.340       .  D
C1125      H1127   1.087       .  S
C1126      H1128   1.087       .  S
C1129      C1130   1.339       .  D
C1129      H1131   1.087       .  S
C1130      H1132   1.087       .  S
C1133      C1134   1.401       .  A
C1133      C1138   1.396       .  A
C1133      H1139   1.083       .  S
C1134      C1135   1.404       .  A
C1135      C1136   1.401       .  A
C1135      H1140   1.083       .  S
C1136      C1137   1.407       .  A
C1136      H1141   1.083       .  S
C1137      C1138   1.408       .  A
C1138      H1142   1.083       .  S
C1143      C1144   1.402       .  A
C1143      C1148   1.395       .  A
C1143      H1149   1.083       .  S
C1144      C1145   1.402       .  A
C1145      C1146   1.395       .  A
C1145      H1150   1.083       .  S
C1146      C1147   1.406       .  A
C1146      H1151   1.083       .  S
C1147      C1148   1.406       .  A
C1148      H1152   1.083       .  S
C1153      C1154   1.399       .  A
C1153      C1158   1.395       .  A
C1153      H1159   1.083       .  S
C1154      C1155   1.402       .  A
C1155      C1156   1.400       .  A
C1155      H1160   1.083       .  S
C1156      C1157   1.406       .  A
C1156      H1161   1.083       .  S
C1157      C1158   1.407       .  A
C1158      H1162   1.083       .  S
C1163      C1164   1.401       .  A
C1163      C1168   1.396       .  A
C1163      H1169   1.083       .  S
C1164      C1165   1.406       .  A
C1165      C1166   1.402       .  A
C1165      H1170   1.083       .  S
C1166      C1167   1.407       .  A
C1166      H1171   1.083       .  S
C1167      C1168   1.408       .  A
C1168      H1172   1.083       .  S
C1173      C1174   1.407       .  A
C1173      C1178   1.395       .  A
C1173      H1179   1.083       .  S
C1174      C1175   1.408       .  A
C1175      H1180   1.083       .  S
C1176      H1181   1.083       .  S
C1177      C1178   1.402       .  A
C1178      H1182   1.083       .  S
C1183      C1184   1.404       .  A
C1183      C1188   1.403       .  A
C1183      H1189   1.083       .  S
C1185      H1190   1.083       .  S
C1186      C1187   1.407   1_554  A
C1187      C1188   1.408       .  A
C1188      H1192   1.083       .  S
C1193      H1199   1.083       .  S
C1194      C1195   1.401       .  A
C1195      C1196   1.396       .  A
C1195      H1200   1.083       .  S
C1196      C1197   1.405       .  A
C1196      H1201   1.083       .  S
C1197      C1198   1.406   1_556  A
C1203      C1204   1.403       .  A
C1203      C1208   1.398       .  A
C1203      H1209   1.083       .  S
C1205      C1206   1.392       .  A
C1205      H1210   1.083       .  S
C1206      H1211   1.083       .  S
C1207      C1208   1.406       .  A
C1208      H1212   1.083       .  S
N1213      C1218   1.351   1_556  A
N1213      H1245   1.039       .  S
N1214      C1222   1.350   1_554  A
N1215      C1220   1.354       .  A
N1215      H1246   1.038   1_554  S
N1216      C1224   1.350   1_554  A
C1217      C1225   1.386       .  A
C1217      C1233   1.413   1_554  A
C1218      C1234   1.415       .  A
C1218      C1226   1.388       .  A
C1219      C1227   1.386       .  A
C1219      C1236   1.414       .  A
C1220      C1235   1.416   1_554  A
C1220      C1228   1.387       .  A
C1221      C1233   1.411       .  A
C1221      C1229   1.385       .  A
C1222      C1236   1.411   1_556  A
C1222      C1230   1.386       .  A
C1223      C1231   1.386       .  A
C1223      C1234   1.414   1_556  A
C1224      C1232   1.387       .  A
C1224      C1235   1.411       .  A
C1225      H1237   1.082       .  S
C1226      H1238   1.082       .  S
C1227      H1239   1.082       .  S
C1228      H1240   1.082       .  S
C1229      H1241   1.082       .  S
C1230      H1242   1.082       .  S
C1231      H1243   1.082       .  S
C1232      H1244   1.082       .  S
C1233      C1588   1.486       .  S
C1234      C1598   1.487       .  S
C1235      C1406   1.482   1_556  S
C1236      C1379   1.488   1_554  S
N1247      C1252   1.355       .  A
N1247      H1279   1.039       .  S
N1248      C1256   1.351   1_455  A
N1249      C1254   1.351       .  A
N1249      H1280   1.040       .  S
N1250      C1258   1.351   1_455  A
C1251      C1259   1.387       .  A
C1251      C1267   1.417       .  A
C1252      C1268   1.419       .  A
C1252      C1260   1.388       .  A
C1253      C1261   1.386       .  A
C1253      C1270   1.411       .  A
C1254      C1269   1.415       .  A
C1254      C1262   1.388       .  A
C1255      C1267   1.411       .  A
C1255      C1263   1.386       .  A
C1256      C1270   1.411       .  A
C1256      C1264   1.386       .  A
C1257      C1265   1.386       .  A
C1257      C1268   1.414       .  A
C1258      C1266   1.387       .  A
C1258      C1269   1.415       .  A
C1259      H1271   1.082       .  S
C1260      H1272   1.082       .  S
C1261      H1273   1.082       .  S
C1262      H1274   1.082       .  S
C1263      H1275   1.082       .  S
C1264      H1276   1.082       .  S
C1265      H1277   1.082       .  S
C1266      H1278   1.082       .  S
C1267      C1366   1.490       .  S
C1268      C1336   1.489       .  S
C1269      C1346   1.483       .  S
C1270      C1356   1.480       .  S
O1281      C1297   1.272       .  A
O1281     Zn1287   2.015       .  S
C1282      C1376   1.484       .  S
C1282      O1298   1.275   1_556  A
C1282      O1497   1.276       .  A
O1283      C1498   1.275       .  A
O1283     Cd1290   2.057       .  S
O1284      C1302   1.273       .  A
O1284     Cd1293   2.065       .  S
O1285      C1501   1.278   1_554  A
O1285     Cd1289   2.081       .  S
O1286      C1297   1.278       .  A
O1286     Cd1289   2.083       .  S
Zn1287     O1298   2.017       .  S
Zn1287     O1300   2.026       .  S
Zn1287     O1494   1.946       .  S
O1288      C1299   1.274       .  A
O1288     Cd1293   2.062       .  S
Cd1289     O1291   2.092       .  S
Cd1289     O1494   2.006       .  S
Cd1290     O1294   2.070       .  S
Cd1290     O1303   2.081       .  S
Cd1290     O1292   1.999       .  S
O1291      C1503   1.277       .  A
O1292     Zn1489   1.961       .  S
O1292     Cd1491   1.994       .  S
O1292     Cd1293   1.994       .  S
Cd1293     O1295   2.061       .  S
O1294      C1301   1.275       .  A
O1295      C1484   1.274       .  A
C1296      C1409   1.476       .  S
C1296      O1485   1.271   1_554  A
C1296      O1300   1.275       .  A
C1297      C1331   1.481       .  S
C1299      C1389   1.477       .  S
C1299      O1487   1.274       .  A
C1301      C1399   1.481       .  S
C1301      O1493   1.274       .  A
C1302      O1303   1.276       .  A
C1302      C1327   1.478       .  S
O1304      C1320   1.280       .  A
O1304     Zn1310   2.065       .  S
C1305      C1369   1.483       .  S
C1305      O1321   1.278       .  A
C1305      O1318   1.274       .  A
O1306      C1319   1.275       .  A
O1306     Cd1313   2.064       .  S
O1307      C1325   1.273       .  A
O1307     Cd1316   2.073       .  S
O1308      C1322   1.272       .  A
O1308     Cd1312   2.054       .  S
O1309      C1320   1.269       .  A
O1309     Cd1312   2.041       .  S
Zn1310     O1321   2.043       .  S
Zn1310     O1323   2.042       .  S
Zn1310     O1315   1.964       .  S
O1311      C1322   1.275       .  A
O1311     Cd1316   2.072       .  S
Cd1312     O1314   2.044       .  S
Cd1312     O1315   1.986       .  S
Cd1313     O1317   2.085       .  S
Cd1313     O1326   2.077       .  S
Cd1313     O1315   2.003       .  S
O1314      C1324   1.272       .  A
O1315     Cd1316   1.997       .  S
Cd1316     O1318   2.052       .  S
O1317      C1324   1.277       .  A
C1319      C1339   1.485       .  S
C1319      O1323   1.279       .  A
C1320      C1332   1.477       .  S
C1322      C1359   1.477       .  S
C1324      C1349   1.479       .  S
C1325      O1326   1.276       .  A
C1325      C1328   1.480       .  S
C1327      C1328   1.345       .  D
C1327      H1329   1.087       .  S
C1328      H1330   1.087       .  S
C1331      C1332   1.341       .  D
C1331      H1333   1.086       .  S
C1332      H1334   1.087       .  S
C1335      C1336   1.402       .  A
C1335      C1340   1.398       .  A
C1335      H1341   1.083       .  S
C1336      C1337   1.404       .  A
C1337      C1338   1.400       .  A
C1337      H1342   1.083       .  S
C1338      C1339   1.407       .  A
C1338      H1343   1.083       .  S
C1339      C1340   1.409       .  A
C1340      H1344   1.083       .  S
C1345      C1346   1.400       .  A
C1345      C1350   1.393       .  A
C1345      H1351   1.083       .  S
C1346      C1347   1.404       .  A
C1347      C1348   1.399       .  A
C1347      H1352   1.083       .  S
C1348      C1349   1.405       .  A
C1348      H1353   1.083       .  S
C1349      C1350   1.408       .  A
C1350      H1354   1.083       .  S
C1355      C1356   1.401       .  A
C1355      C1360   1.396       .  A
C1355      H1361   1.083       .  S
C1356      C1357   1.402       .  A
C1357      C1358   1.397       .  A
C1357      H1362   1.083       .  S
C1358      C1359   1.405       .  A
C1358      H1363   1.083       .  S
C1359      C1360   1.407       .  A
C1360      H1364   1.083       .  S
C1365      C1366   1.401       .  A
C1365      C1370   1.395       .  A
C1365      H1371   1.083       .  S
C1366      C1367   1.406       .  A
C1367      C1368   1.401       .  A
C1367      H1372   1.083       .  S
C1368      C1369   1.406       .  A
C1368      H1373   1.083       .  S
C1369      C1370   1.408       .  A
C1370      H1374   1.083       .  S
C1375      C1376   1.407   1_554  A
C1375      C1380   1.396       .  A
C1375      H1381   1.083       .  S
C1376      C1377   1.408       .  A
C1377      C1580   1.400       .  A
C1377      H1382   1.083       .  S
C1378      C1579   1.398       .  A
C1378      C1581   1.402       .  A
C1378      H1383   1.083       .  S
C1379      C1580   1.403       .  A
C1379      C1380   1.403   1_556  A
C1380      H1384   1.083       .  S
C1385      C1386   1.402       .  A
C1385      C1390   1.396       .  A
C1385      H1391   1.083       .  S
C1386      C1589   1.402       .  A
C1386      C1435   1.482       .  S
C1387      C1588   1.402   1_554  A
C1387      C1590   1.398       .  A
C1387      H1392   1.083       .  S
C1388      C1589   1.395       .  A
C1388      C1389   1.406       .  A
C1388      H1595   1.083       .  S
C1389      C1390   1.406       .  A
C1390      H1394   1.083       .  S
H1393      C1590   1.083       .  S
C1395      C1598   1.405       .  A
C1395      C1602   1.403       .  A
C1395      H1401   1.083       .  S
C1396      C1597   1.403       .  A
C1396      C1397   1.403       .  A
C1396      C1436   1.486       .  S
C1397      C1398   1.396       .  A
C1397      H1402   1.083       .  S
C1398      C1399   1.406       .  A
C1398      H1403   1.083       .  S
C1399      C1400   1.407       .  A
C1400      C1597   1.397       .  A
C1400      H1606   1.083       .  S
H1404      C1602   1.083       .  S
C1405      C1406   1.403       .  A
C1405      C1410   1.396       .  A
C1405      H1411   1.083       .  S
C1406      C1609   1.401   1_554  A
C1407      C1608   1.400       .  A
C1407      C1408   1.395       .  A
C1407      H1412   1.083       .  S
C1408      C1611   1.407       .  A
C1408      H1413   1.083       .  S
C1409      C1610   1.407   1_554  A
C1409      C1410   1.404       .  A
C1410      H1414   1.083       .  S
N1415      C1420   1.352       .  A
N1415      H1447   1.041       .  S
N1416      C1424   1.352       .  A
N1417      C1422   1.354       .  A
N1417      H1448   1.037       .  S
N1418      C1426   1.352       .  A
C1419      C1427   1.387       .  A
C1419      C1435   1.412       .  A
C1420      C1436   1.416       .  A
C1420      C1428   1.388       .  A
C1421      C1429   1.386       .  A
C1421      C1438   1.414       .  A
C1422      C1437   1.417       .  A
C1422      C1430   1.387       .  A
C1423      C1435   1.409       .  A
C1423      C1431   1.386       .  A
C1424      C1438   1.412       .  A
C1424      C1432   1.385       .  A
C1425      C1433   1.387       .  A
C1425      C1436   1.414       .  A
C1426      C1434   1.386       .  A
C1426      C1437   1.413       .  A
C1427      H1439   1.082       .  S
C1428      H1440   1.082       .  S
C1429      H1441   1.082       .  S
C1430      H1442   1.082       .  S
C1431      H1443   1.082       .  S
C1432      H1444   1.082       .  S
C1433      H1445   1.082       .  S
C1434      H1446   1.082       .  S
C1437      C1608   1.485       .  S
C1438      C1581   1.491       .  S
N1449      C1454   1.354   1_545  A
N1449      H1481   1.040       .  S
N1450      C1458   1.352   1_455  A
N1451      C1456   1.353   1_545  A
N1451      H1482   1.035       .  S
N1452      C1460   1.352   1_455  A
C1453      C1461   1.387       .  A
C1453      C1469   1.413       .  A
C1454      C1470   1.417       .  A
C1454      C1462   1.387       .  A
C1455      C1463   1.385       .  A
C1455      C1472   1.412       .  A
C1456      C1471   1.415       .  A
C1456      C1464   1.388       .  A
C1457      C1469   1.412       .  A
C1457      C1465   1.387       .  A
C1458      C1472   1.411       .  A
C1458      C1466   1.384       .  A
C1459      C1467   1.387       .  A
C1459      C1470   1.412       .  A
C1460      C1468   1.387       .  A
C1460      C1471   1.415       .  A
C1461      H1473   1.082       .  S
C1462      H1474   1.082       .  S
C1463      H1475   1.082       .  S
C1464      H1476   1.082       .  S
C1465      H1477   1.082       .  S
C1466      H1478   1.082       .  S
C1467      H1479   1.082       .  S
C1468      H1480   1.082       .  S
C1469      C1568   1.483       .  S
C1470      C1538   1.486       .  S
C1471      C1548   1.486       .  S
C1472      C1558   1.489       .  S
O1483      C1499   1.278       .  A
O1483     Zn1489   2.051       .  S
C1484      C1578   1.487       .  S
C1484      O1500   1.279       .  A
O1485     Cd1492   2.048       .  S
O1486      C1504   1.276       .  A
O1486     Cd1495   2.076       .  S
O1487     Cd1491   2.060       .  S
O1488      C1499   1.271       .  A
O1488     Cd1491   2.047       .  S
Zn1489     O1500   2.049       .  S
Zn1489     O1502   2.041       .  S
O1490      C1501   1.276       .  A
O1490     Cd1495   2.073       .  S
Cd1491     O1493   2.064       .  S
Cd1492     O1496   2.049       .  S
Cd1492     O1505   2.050       .  S
Cd1492     O1494   1.991   1_556  S
O1494     Cd1495   2.004   1_554  S
Cd1495     O1497   2.077       .  S
O1496      C1503   1.273   1_556  A
C1498      C1611   1.481       .  S
C1498      O1502   1.278       .  A
C1499      C1533   1.474       .  S
C1501      C1591   1.485       .  S
C1503      C1601   1.483       .  S
C1504      O1505   1.270       .  A
C1504      C1529   1.471       .  S
O1506      C1522   1.272       .  A
O1506     Zn1512   2.015       .  S
C1507      C1571   1.479       .  S
C1507      O1523   1.274       .  A
C1507      O1520   1.276       .  A
O1508      C1521   1.273       .  A
O1508     Cd1515   2.068       .  S
O1509      C1527   1.277       .  A
O1509     Cd1518   2.075       .  S
O1510      C1524   1.278       .  A
O1510     Cd1514   2.086       .  S
O1511      C1522   1.277       .  A
O1511     Cd1514   2.070       .  S
Zn1512     O1523   2.006       .  S
Zn1512     O1525   2.025       .  S
Zn1512     O1517   1.944       .  S
O1513      C1524   1.277       .  A
O1513     Cd1518   2.086       .  S
Cd1514     O1516   2.075       .  S
Cd1514     O1517   1.999       .  S
Cd1515     O1519   2.056       .  S
Cd1515     O1528   2.051       .  S
Cd1515     O1517   1.994       .  S
O1516      C1526   1.276       .  A
O1517     Cd1518   2.001       .  S
Cd1518     O1520   2.070       .  S
O1519      C1526   1.275       .  A
C1521      C1541   1.482       .  S
C1521      O1525   1.275       .  A
C1522      C1534   1.478       .  S
C1524      C1561   1.490       .  S
C1526      C1551   1.480       .  S
C1527      O1528   1.271       .  A
C1527      C1530   1.471       .  S
C1529      C1530   1.339       .  D
C1529      H1531   1.087       .  S
C1530      H1532   1.087       .  S
C1533      C1534   1.341       .  D
C1533      H1535   1.087       .  S
C1534      H1536   1.087       .  S
C1537      C1538   1.403       .  A
C1537      C1542   1.401       .  A
C1537      H1543   1.083       .  S
C1538      C1539   1.402       .  A
C1539      C1540   1.395       .  A
C1539      H1544   1.083       .  S
C1540      C1541   1.405       .  A
C1540      H1545   1.083       .  S
C1541      C1542   1.409       .  A
C1542      H1546   1.083       .  S
C1547      C1548   1.404       .  A
C1547      C1552   1.400       .  A
C1547      H1553   1.083       .  S
C1548      C1549   1.401       .  A
C1549      C1550   1.392       .  A
C1549      H1554   1.083       .  S
C1550      C1551   1.406       .  A
C1550      H1555   1.083       .  S
C1551      C1552   1.408       .  A
C1552      H1556   1.083       .  S
C1557      C1558   1.402       .  A
C1557      C1562   1.400       .  A
C1557      H1563   1.083       .  S
C1558      C1559   1.403       .  A
C1559      C1560   1.402       .  A
C1559      H1564   1.083       .  S
C1560      C1561   1.409       .  A
C1560      H1565   1.083       .  S
C1561      C1562   1.408       .  A
C1562      H1566   1.083       .  S
C1567      C1568   1.402       .  A
C1567      C1572   1.397       .  A
C1567      H1573   1.083       .  S
C1568      C1569   1.402       .  A
C1569      C1570   1.395       .  A
C1569      H1574   1.083       .  S
C1570      C1571   1.407       .  A
C1570      H1575   1.083       .  S
C1571      C1572   1.406       .  A
C1572      H1576   1.083       .  S
C1577      C1578   1.407       .  A
C1577      C1582   1.401       .  A
C1577      H1583   1.083       .  S
C1578      C1579   1.409       .  A
C1579      H1584   1.083       .  S
C1580      H1585   1.083       .  S
C1581      C1582   1.405       .  A
C1582      H1586   1.083       .  S
C1587      C1588   1.402       .  A
C1587      C1592   1.399       .  A
C1587      H1593   1.083       .  S
C1589      H1594   1.083       .  S
C1590      C1591   1.407   1_554  A
C1591      C1592   1.408       .  A
C1592      H1596   1.083       .  S
C1597      H1603   1.083       .  S
C1598      C1599   1.400   1_554  A
C1599      C1600   1.392       .  A
C1599      H1604   1.083       .  S
C1600      C1601   1.407   1_556  A
C1600      H1605   1.083       .  S
C1601      C1602   1.408       .  A
C1607      C1608   1.404       .  A
C1607      C1612   1.400       .  A
C1607      H1613   1.083       .  S
C1609      C1610   1.396       .  A
C1609      H1614   1.083       .  S
C1610      H1615   1.083       .  S
C1611      C1612   1.407       .  A
C1612      H1616   1.083       .  S
