geometry optimzed in LAMMPS
_audit_creation_date              2020-11-30 
_audit_creation_method            'lammps2cif' 
_symmetry_space_group_name_H-M    'P1' 
_symmetry_Int_Tables_number       1 
_symmetry_cell_setting            triclinic 
loop_ 
_symmetry_equiv_pos_as_xyz 
  x,y,z 
_cell_length_a                    55.36770071 
_cell_length_b                    55.33827303426912 
_cell_length_c                    55.299527607033156 
_cell_angle_alpha                 89.92089898480019 
_cell_angle_beta                  89.99339727327167 
_cell_angle_gamma                 89.99928830498743 
loop_ 
_atom_site_label 
_atom_site_type_symbol 
_atom_site_fract_x 
_atom_site_fract_y 
_atom_site_fract_z 
_atom_site_charge 
O1          O  0.87006098  0.84484988  0.59302637    -0.84800
O2          O  0.89768811  0.83545415  0.63337341    -0.81800
C3          C  0.90744284  0.85537747  0.63923712     0.98700
O4          O  0.89481804  0.87247197  0.64721844    -0.81900
O5          O  0.85545138  0.90073643  0.65729111    -0.84500
C6          C  0.85074149  0.91123596  0.63747581     1.03200
O7          O  0.84279552  0.89933965  0.61980893    -0.77300
O8          O  0.83364665  0.86023069  0.59009482    -0.77500
C9          C  0.85332428  0.85366891  0.58033281     1.03200
O10         O  0.83165856  0.81522782  0.61140165    -0.84800
O11         O  0.85678512  0.80904622  0.65317591    -0.81800
C12         C  0.86559007  0.81390524  0.67350525     0.98700
O13         O  0.87564098  0.83417365  0.67674038    -0.81900
O14         O  0.83457327  0.85999138  0.68231662    -0.84500
C15         C  0.81464472  0.86963172  0.67731932     1.03200
O16         O  0.81138958  0.87920050  0.65671538    -0.77300
O17         O  0.80580844  0.83935842  0.62888033    -0.77400
C18         C  0.81061938  0.81934965  0.61928945     1.03100
Cr19       Cr  0.86329055  0.82812807  0.62376805     1.93700
Cr20       Cr  0.86418221  0.86609451  0.66386173     1.93200
Cr21       Cr  0.82538200  0.86858492  0.62466204     1.39100
O22         O  0.85109984  0.85444595  0.63717361    -1.22500
O23         O  0.65904377  0.89961099  0.86285603    -0.84800
O24         O  0.66854872  0.86073951  0.89236825    -0.81800
C25         C  0.64888824  0.85596314  0.90310467     0.98700
O26         O  0.63123762  0.84776852  0.89136861    -0.81900
O27         O  0.60159892  0.83770828  0.85247851    -0.84500
C28         C  0.59178922  0.85748088  0.84612064     1.03200
O29         O  0.60446540  0.87415242  0.83720456    -0.77300
O30         O  0.64488959  0.90124398  0.82592490    -0.77500
C31         C  0.65105928  0.91174584  0.84532330     1.03200
O32         O  0.68814497  0.87850473  0.82501291    -0.84800
O33         O  0.69357091  0.83850146  0.85280157    -0.81800
C34         C  0.68879047  0.81895387  0.86323379     0.98700
O35         O  0.66798918  0.81585925  0.87240441    -0.81900
O36         O  0.64039515  0.80951298  0.83213608    -0.84500
C37         C  0.63080551  0.81389215  0.81204132     1.03200
O38         O  0.62215143  0.83473681  0.80804058    -0.77300
O39         O  0.66379363  0.85949296  0.80078862    -0.77400
C40         C  0.68420713  0.86842037  0.80482310     1.03100
Cr41       Cr  0.67526910  0.86842459  0.85753351     1.93700
Cr42       Cr  0.63608966  0.82964685  0.86107569     1.93200
Cr43       Cr  0.63482209  0.86670468  0.81999474     1.39100
O44         O  0.64853818  0.85509187  0.84639484    -1.22500
O45         O  0.87346186  0.65994941  0.88938823    -0.84800
O46         O  0.90086829  0.67094697  0.84911593    -0.81800
C47         C  0.91094735  0.65096039  0.84440618     0.98700
O48         O  0.89874500  0.63363711  0.83610514    -0.81900
O49         O  0.85948726  0.60476904  0.82618856    -0.84500
C50         C  0.85502029  0.59461502  0.84623720     1.03200
O51         O  0.84605616  0.60668181  0.86327586    -0.77300
O52         O  0.83673091  0.64561764  0.89244862    -0.77500
C53         C  0.85677194  0.65110371  0.90212603     1.03200
O54         O  0.83504879  0.69002732  0.87187145    -0.84800
O55         O  0.85997821  0.69673568  0.82953261    -0.81800
C56         C  0.86939261  0.69179540  0.80936387     0.98700
O57         O  0.87883600  0.67127883  0.80611934    -0.81900
O58         O  0.83801972  0.64453361  0.80013933    -0.84500
C59         C  0.81815172  0.63474629  0.80534169     1.03200
O60         O  0.81471858  0.62607466  0.82626288    -0.77300
O61         O  0.80888790  0.66675171  0.85382195    -0.77400
C62         C  0.81384316  0.68633467  0.86431238     1.03100
Cr63       Cr  0.86650839  0.67747025  0.85897204     1.93700
Cr64       Cr  0.86779588  0.63934716  0.81911197     1.93200
Cr65       Cr  0.82853710  0.63728043  0.85803227     1.39100
O66         O  0.85432042  0.65126435  0.84546049    -1.22500
O67         O  0.60216740  0.63022505  0.65109744    -0.84800
O68         O  0.64352972  0.60329345  0.66144886    -0.81800
C69         C  0.65039757  0.59288960  0.64226696     0.98700
O70         O  0.65720448  0.60532762  0.62440099    -0.81900
O71         O  0.66468776  0.64529651  0.59508495    -0.84500
C72         C  0.64503895  0.65134346  0.58504079     1.03200
O73         O  0.62781038  0.65989645  0.59717924    -0.77300
O74         O  0.59872938  0.66719464  0.63682054    -0.77500
C75         C  0.58941925  0.64695569  0.64219426     1.03200
O76         O  0.61952555  0.66857880  0.68119165    -0.84800
O77         O  0.66215656  0.64442769  0.68711881    -0.81800
C78         C  0.68268036  0.63597887  0.68233448     0.98700
O79         O  0.68652854  0.62706652  0.66158222    -0.81900
O80         O  0.69063541  0.66744934  0.63439236    -0.84500
C81         C  0.68505682  0.68759961  0.62561788     1.03200
O82         O  0.66408635  0.69083827  0.61713796    -0.77300
O83         O  0.63756187  0.69504853  0.65827883    -0.77400
C84         C  0.62767903  0.68966443  0.67803817     1.03100
Cr85       Cr  0.63281229  0.63744313  0.66809227     1.93700
Cr86       Cr  0.67258572  0.63724505  0.62961310     1.93200
Cr87       Cr  0.63292812  0.67615887  0.62840939     1.39100
O88         O  0.64587461  0.65002246  0.64170507    -1.22500
O89         O  0.90318158  0.16942898  0.64749951    -0.84800
O90         O  0.87482739  0.16032550  0.60766120    -0.81800
C91         C  0.85816378  0.15138210  0.59508039     0.98700
O92         O  0.83881959  0.14417057  0.60496307    -0.81900
O93         O  0.85074432  0.10454466  0.63331140    -0.84500
C94         C  0.85848821  0.09221423  0.65090972     1.03200
O95         O  0.86325144  0.10249492  0.67076009    -0.77300
O96         O  0.90204279  0.13247424  0.66197525    -0.77500
C97         C  0.91385162  0.14999544  0.65337283     1.03200
O98         O  0.86272712  0.19438197  0.66879224    -0.84800
O99         O  0.83578674  0.18854961  0.62813393    -0.81800
C100        C  0.81507860  0.18331159  0.63643694     0.98700
O101        O  0.81098810  0.16267820  0.64507328    -0.81900
O102        O  0.81921412  0.12136798  0.67067024    -0.84500
C103        C  0.82123879  0.13024880  0.69156960     1.03200
O104        O  0.84042278  0.14121302  0.69712450    -0.77300
O105        O  0.88127399  0.16886641  0.69249506    -0.77400
C106        C  0.87281137  0.18971813  0.68855381     1.03100
Cr107      Cr  0.86836233  0.17606213  0.63898879     1.93700
Cr108      Cr  0.83193534  0.13434120  0.63933316     1.93200
Cr109      Cr  0.87073326  0.13712059  0.67853291     1.39100
O110        O  0.85721178  0.14910400  0.65209723    -1.22500
O111        O  0.87297271  0.40140581  0.84458898    -0.84800
O112        O  0.90237954  0.36247420  0.83373325    -0.81800
C113        C  0.91265307  0.35682645  0.85336578     0.98700
O114        O  0.90075959  0.34808550  0.87068932    -0.81900
O115        O  0.86164219  0.33741437  0.89945096    -0.84500
C116        C  0.85515004  0.35679373  0.90961673     1.03200
O117        O  0.84565650  0.37370117  0.89760327    -0.77300
O118        O  0.83585592  0.40224574  0.85797981    -0.77500
C119        C  0.85522362  0.41318675  0.85273716     1.03200
O120        O  0.83591023  0.38223929  0.81417575    -0.84800
O121        O  0.86261841  0.34127114  0.80762222    -0.81800
C122        C  0.87226895  0.32132439  0.81274103     0.98700
O123        O  0.88182972  0.31789664  0.83320601    -0.81900
O124        O  0.84125163  0.31031201  0.86037698    -0.84500
C125        C  0.82124778  0.31465176  0.87034917     1.03200
O126        O  0.81690959  0.33562232  0.87816005    -0.77300
O127        O  0.81058731  0.36203798  0.83635821    -0.77400
C128        C  0.81541319  0.37265144  0.81673821     1.03100
Cr129      Cr  0.86772542  0.37074971  0.82703038     1.93700
Cr130      Cr  0.87030702  0.33046306  0.86508774     1.93200
Cr131      Cr  0.82926661  0.36763574  0.86647710     1.39100
O132        O  0.85595371  0.35641416  0.85310403    -1.22500
O133        O  0.64476148  0.10292886  0.83764192    -0.84800
O134        O  0.60773253  0.13512741  0.84701593    -0.81800
C135        C  0.59680397  0.15372695  0.85437886     0.98700
O136        O  0.60869348  0.17254715  0.85958251    -0.81900
O137        O  0.63590722  0.16050277  0.89948557    -0.84500
C138        C  0.65176780  0.14994603  0.91202018     1.03200
O139        O  0.67157374  0.14368972  0.90243625    -0.77300
O140        O  0.65941268  0.10465390  0.87443731    -0.77500
C141        C  0.65018002  0.09277481  0.85742273     1.03200
O142        O  0.66867358  0.14016257  0.81039853    -0.84800
O143        O  0.63003889  0.17018679  0.81602180    -0.81800
C144        C  0.64030249  0.19037787  0.81872523     0.98700
O145        O  0.65064248  0.19502623  0.83853014    -0.81900
O146        O  0.67638287  0.18741071  0.88047442    -0.84500
C147        C  0.69674529  0.18204586  0.87155607     1.03200
O148        O  0.70011073  0.16164540  0.86224126    -0.77300
O149        O  0.69087448  0.12071625  0.83670217    -0.77400
C150        C  0.68780277  0.12900245  0.81563213     1.03100
Cr151      Cr  0.63885780  0.13785857  0.82975594     1.93700
Cr152      Cr  0.64363123  0.17681418  0.86861050     1.93200
Cr153      Cr  0.67857565  0.13390755  0.86812858     1.39100
O154        O  0.65357555  0.14938719  0.85559903    -1.22500
O155        O  0.65819994  0.36953838  0.60239414    -0.84800
O156        O  0.67135642  0.39867908  0.64090033    -0.81800
C157        C  0.65207596  0.41009543  0.64569612     0.98700
O158        O  0.63452297  0.39877696  0.65471493    -0.81900
O159        O  0.60407611  0.36143645  0.66778703    -0.84500
C160        C  0.59298410  0.35530156  0.64872371     1.03200
O161        O  0.60418218  0.34478341  0.63190800    -0.77300
O162        O  0.64211857  0.33330499  0.60185871    -0.77500
C163        C  0.64829637  0.35247483  0.59091492     1.03200
O164        O  0.68722192  0.33103402  0.62101326    -0.84800
O165        O  0.69592252  0.35747877  0.66209582    -0.81800
C166        C  0.69182203  0.36794472  0.68188972     0.98700
O167        O  0.67197543  0.37887091  0.68507606    -0.81900
O168        O  0.64335927  0.34004678  0.69419202    -0.84500
C169        C  0.63372840  0.31987782  0.69018605     1.03200
O170        O  0.62471102  0.31501024  0.66972721    -0.77300
O171        O  0.66417472  0.30654335  0.64126747    -0.77400
C172        C  0.68377357  0.31050308  0.63032028     1.03100
Cr173      Cr  0.67617735  0.36348890  0.63276402     1.93700
Cr174      Cr  0.63918368  0.36864983  0.67341700     1.93200
Cr175      Cr  0.63488299  0.32693379  0.63694918     1.39100
O176        O  0.64988430  0.35305747  0.64761774    -1.22500
O177        O  0.13632127  0.90006931  0.66528152    -0.84800
O178        O  0.09881590  0.86922048  0.65506958    -0.81800
C179        C  0.08788730  0.85146377  0.64591676     0.98700
O180        O  0.09927348  0.83244897  0.64041468    -0.81900
O181        O  0.12736172  0.84482867  0.60129629    -0.84500
C182        C  0.14429901  0.85424414  0.58935825     1.03200
O183        O  0.16367178  0.86050867  0.59975216    -0.77300
O184        O  0.14972003  0.89893406  0.62816727    -0.77500
C185        C  0.13999052  0.91047711  0.64524963     1.03200
O186        O  0.15965716  0.86142455  0.69134071    -0.84800
O187        O  0.12019980  0.83260760  0.68523378    -0.81800
C188        C  0.12994242  0.81232568  0.68140012     0.98700
O189        O  0.14017017  0.80824603  0.66144867    -0.81900
O190        O  0.16686686  0.81703628  0.62077517    -0.84500
C191        C  0.18717608  0.82166785  0.63025899     1.03200
O192        O  0.19057183  0.84182887  0.64012162    -0.77300
O193        O  0.18154343  0.88262776  0.66625989    -0.77400
C194        C  0.17881172  0.87267152  0.68666499     1.03100
Cr195      Cr  0.12978470  0.86514240  0.67233332     1.93700
Cr196      Cr  0.13409774  0.82762332  0.63200282     1.93200
Cr197      Cr  0.16949831  0.86991308  0.63434148     1.39100
O198        O  0.14429814  0.85428980  0.64612812    -1.22500
O199        O  0.34484227  0.87204545  0.89362838    -0.84800
O200        O  0.33130687  0.89988863  0.85485164    -0.81800
C201        C  0.35028474  0.91106788  0.84879131     0.98700
O202        O  0.36740588  0.89983281  0.83871847    -0.81900
O203        O  0.39695585  0.86156900  0.82609349    -0.84500
C204        C  0.40910394  0.85678366  0.84483523     1.03200
O205        O  0.39852969  0.84803430  0.86310405    -0.77300
O206        O  0.36165927  0.83626547  0.89487439    -0.77500
C207        C  0.35538201  0.85563212  0.90537397     1.03200
O208        O  0.31571287  0.83290178  0.87624813    -0.84800
O209        O  0.30565289  0.85887414  0.83532144    -0.81800
C210        C  0.30852124  0.86953246  0.81541796     0.98700
O211        O  0.32869906  0.87923168  0.81073174    -0.81900
O212        O  0.35643708  0.83886932  0.80279640    -0.84500
C213        C  0.36712490  0.81927068  0.80735782     1.03200
O214        O  0.37795321  0.81648247  0.82732370    -0.77300
O215        O  0.33944597  0.80807778  0.85707235    -0.77400
C216        C  0.31979844  0.81209847  0.86788261     1.03100
Cr217      Cr  0.32635882  0.86516858  0.86382426     1.93700
Cr218      Cr  0.36175504  0.86882553  0.82162829     1.93200
Cr219      Cr  0.36822855  0.82919217  0.85984493     1.39100
O220        O  0.35224856  0.85449494  0.84858174    -1.22500
O221        O  0.13138593  0.60318684  0.84268618    -0.84800
O222        O  0.10364088  0.64224341  0.82981137    -0.81800
C223        C  0.09260725  0.64840474  0.84888899     0.98700
O224        O  0.10405273  0.65866540  0.86577029    -0.81900
O225        O  0.14231063  0.67030513  0.89539041    -0.84500
C226        C  0.14503772  0.65084655  0.90703237     1.03200
O227        O  0.15393427  0.63272196  0.89642829    -0.77300
O228        O  0.16705017  0.60153282  0.85964992    -0.77500
C229        C  0.14778933  0.59123020  0.85296002     1.03200
O230        O  0.17081539  0.62108878  0.81393233    -0.84800
O231        O  0.14459794  0.66149515  0.80375701    -0.81800
C232        C  0.13367496  0.68116050  0.80683997     0.98700
O233        O  0.12486923  0.68633034  0.82724974    -0.81900
O234        O  0.16571943  0.69344993  0.85495808    -0.84500
C235        C  0.18498787  0.68862102  0.86613722     1.03200
O236        O  0.18676836  0.66876649  0.87744317    -0.77300
O237        O  0.19537960  0.63973885  0.83871749    -0.77400
C238        C  0.19146435  0.62969541  0.81870737     1.03100
Cr239      Cr  0.13836821  0.63311982  0.82454042     1.93700
Cr240      Cr  0.13528692  0.67522136  0.86018477     1.93200
Cr241      Cr  0.17389255  0.63644462  0.86694977     1.39100
O242        O  0.14909748  0.64813248  0.85056263    -1.22500
O243        O  0.35479877  0.60263205  0.66120683    -0.84800
O244        O  0.39461821  0.63076015  0.65173005    -0.81800
C245        C  0.40723412  0.64778916  0.64351280     0.98700
O246        O  0.39732844  0.66785752  0.63857305    -0.81900
O247        O  0.36688181  0.65944689  0.59990265    -0.84500
C248        C  0.34892679  0.65190044  0.58808659     1.03200
O249        O  0.32918058  0.64764882  0.59875911    -0.77300
O250        O  0.33905592  0.60671965  0.62517284    -0.77500
C251        C  0.34828692  0.59345606  0.64119800     1.03200
O252        O  0.33587093  0.64170167  0.69034786    -0.84800
O253        O  0.37697987  0.66759587  0.68407187    -0.81800
C254        C  0.36932960  0.68891944  0.68086178     0.98700
O255        O  0.35937797  0.69489959  0.66129016    -0.81900
O256        O  0.33092594  0.69066468  0.62117047    -0.84500
C257        C  0.31056721  0.68761223  0.63117721     1.03200
O258        O  0.30535734  0.66752668  0.64048096    -0.77300
O259        O  0.31095240  0.62478404  0.66485609    -0.77400
C260        C  0.31575008  0.63219001  0.68591644     1.03100
Cr261      Cr  0.36451156  0.63659786  0.66988031     1.93700
Cr262      Cr  0.36276885  0.67621822  0.63115398     1.93200
Cr263      Cr  0.32319794  0.63763548  0.63313132     1.39100
O264        O  0.35028170  0.65006968  0.64466590    -1.22500
O265        O  0.17168555  0.09988975  0.64209681    -0.84800
O266        O  0.16101656  0.12699831  0.60206574    -0.81800
C267        C  0.15157797  0.14328096  0.58930577     0.98700
O268        O  0.14484386  0.16294045  0.59891910    -0.81900
O269        O  0.10683961  0.15215384  0.62945506    -0.84500
C270        C  0.09541774  0.14413819  0.64750789     1.03200
O271        O  0.10638498  0.14119738  0.66735430    -0.77300
O272        O  0.13521595  0.10216563  0.65736099    -0.77500
C273        C  0.15197336  0.08991703  0.64805105     1.03200
O274        O  0.19823859  0.14053919  0.66132784    -0.84800
O275        O  0.19042793  0.16615468  0.61999188    -0.81800
C276        C  0.18602996  0.18716104  0.62798659     0.98700
O277        O  0.16565885  0.19177036  0.63687986    -0.81900
O278        O  0.12616453  0.18513685  0.66538267    -0.84500
C279        C  0.13606155  0.18293313  0.68593072     1.03200
O280        O  0.14682925  0.16356030  0.69121061    -0.77300
O281        O  0.17359300  0.12214529  0.68597856    -0.77400
C282        C  0.19425419  0.13086147  0.68149663     1.03100
Cr283      Cr  0.17834051  0.13424454  0.63241340     1.93700
Cr284      Cr  0.13693755  0.17108105  0.63350730     1.93200
Cr285      Cr  0.14128034  0.13321841  0.67345964     1.39100
O286        O  0.15217950  0.14611330  0.64633033    -1.22500
O287        O  0.33279080  0.39947801  0.63717498    -0.84800
O288        O  0.34549561  0.36940109  0.59961640    -0.81800
C289        C  0.35562649  0.35234960  0.58848932     0.98700
O290        O  0.36137249  0.33312862  0.59962121    -0.81900
O291        O  0.39964562  0.34513041  0.62895338    -0.84500
C292        C  0.41113372  0.35510478  0.64586291     1.03200
O293        O  0.40018399  0.36255271  0.66455294    -0.77300
O294        O  0.36964343  0.39975591  0.65104293    -0.77500
C295        C  0.35210980  0.41090960  0.64177659     1.03200
O296        O  0.30827711  0.35899504  0.65939608    -0.84800
O297        O  0.31640901  0.33127178  0.61938156    -0.81800
C298        C  0.32039376  0.31100470  0.62926179     0.98700
O299        O  0.34006464  0.30768049  0.64003253    -0.81900
O300        O  0.37970582  0.31669734  0.66757898    -0.84500
C301        C  0.37076389  0.32151658  0.68808444     1.03200
O302        O  0.36085979  0.34165352  0.69163138    -0.77300
O303        O  0.33223338  0.38062164  0.68190906    -0.77400
C304        C  0.31212118  0.37010589  0.67881049     1.03100
Cr305      Cr  0.32774655  0.36411406  0.63001121     1.93700
Cr306      Cr  0.36906135  0.32769855  0.63471931     1.93200
Cr307      Cr  0.36500991  0.37000089  0.67031364     1.39100
O308        O  0.35415307  0.35402479  0.64488944    -1.22500
O309        O  0.40206655  0.13205438  0.84054345    -0.84800
O310        O  0.36263856  0.10245426  0.83383645    -0.81800
C311        C  0.35769367  0.09269586  0.85398453     0.98700
O312        O  0.34949291  0.10545964  0.87091353    -0.81900
O313        O  0.34074190  0.14558158  0.89884763    -0.84500
C314        C  0.36080732  0.15145152  0.90806142     1.03200
O315        O  0.37729415  0.16012448  0.89495594    -0.77300
O316        O  0.40439049  0.16917022  0.85405930    -0.77500
C317        C  0.41448017  0.14947880  0.84824850     1.03200
O318        O  0.38044005  0.16822662  0.80985726    -0.84800
O319        O  0.33985098  0.14023798  0.80668933    -0.81800
C320        C  0.32013937  0.13071598  0.81287273     0.98700
O321        O  0.31713199  0.12361038  0.83438481    -0.81900
O322        O  0.31235674  0.16542345  0.86056532    -0.84500
C323        C  0.31752312  0.18560253  0.86962420     1.03200
O324        O  0.33891059  0.19017715  0.87624922    -0.77300
O325        O  0.36396766  0.19499851  0.83391464    -0.77400
C326        C  0.37240797  0.18929875  0.81354412     1.03100
Cr327      Cr  0.37028247  0.13675015  0.82489812     1.93700
Cr328      Cr  0.33203026  0.13609698  0.86508624     1.93200
Cr329      Cr  0.37019013  0.17642371  0.86382236     1.39100
O330        O  0.35754463  0.14972964  0.85129173    -1.22500
O331        O  0.14602291  0.33603816  0.89926269    -0.84800
O332        O  0.10700164  0.34451027  0.86987932    -0.81800
C333        C  0.09450273  0.35188433  0.85240526     0.98700
O334        O  0.10469192  0.35605299  0.83227857    -0.81900
O335        O  0.13257291  0.39646293  0.84103965    -0.84500
C336        C  0.14950499  0.40921029  0.84932374     1.03200
O337        O  0.16955926  0.39951236  0.85469477    -0.77300
O338        O  0.15938047  0.37286437  0.89510569    -0.77500
C339        C  0.15080901  0.35652912  0.90834361     1.03200
O340        O  0.16721352  0.30772806  0.86099991    -0.84800
O341        O  0.12651515  0.31250770  0.83364803    -0.81800
C342        C  0.13587476  0.31494048  0.81292241     0.98700
O343        O  0.14528230  0.33490507  0.80724300    -0.81900
O344        O  0.17090158  0.37682392  0.81181805    -0.84500
C345        C  0.19165630  0.36805184  0.81577708     1.03200
O346        O  0.19659609  0.35915680  0.83611354    -0.77300
O347        O  0.19048013  0.33435828  0.87844195    -0.77400
C348        C  0.18698812  0.31306186  0.87086960     1.03100
Cr349      Cr  0.13763836  0.32708597  0.86504219     1.93700
Cr350      Cr  0.13914456  0.36517168  0.82505833     1.93200
Cr351      Cr  0.17711152  0.36558059  0.86515548     1.39100
O352        O  0.15124916  0.35268137  0.85181706    -1.22500
O353        O  0.83987393  0.85698877  0.38755814    -0.84800
O354        O  0.85104781  0.89782468  0.36044037    -0.81800
C355        C  0.85888839  0.91089561  0.34344042     0.98700
O356        O  0.86480747  0.90122282  0.32359963    -0.81900
O357        O  0.90446767  0.87284848  0.33400892    -0.84500
C358        C  0.91657827  0.85581565  0.34308290     1.03200
O359        O  0.90663159  0.83558342  0.34727550    -0.77300
O360        O  0.87651669  0.84227010  0.38590749    -0.77500
C361        C  0.85911705  0.85039373  0.39802440     1.03200
O362        O  0.81433890  0.83823423  0.34662913    -0.84800
O363        O  0.82151268  0.88004641  0.32147754    -0.81800
C364        C  0.82528402  0.87164667  0.30052832     0.98700
O365        O  0.84531943  0.86204892  0.29551693    -0.81900
O366        O  0.88767047  0.83637716  0.30150864    -0.84500
C367        C  0.88061358  0.81487167  0.30458993     1.03200
O368        O  0.86894908  0.80924797  0.32326775    -0.77300
O369        O  0.83973926  0.81290394  0.36328074    -0.77400
C370        C  0.81873406  0.81775498  0.35557656     1.03100
Cr371      Cr  0.83383856  0.86727965  0.35318566     1.93700
Cr372      Cr  0.87444880  0.86714334  0.31563089     1.93200
Cr373      Cr  0.87203287  0.82707662  0.35393127     1.39100
O374        O  0.86018668  0.85383221  0.34103909    -1.22500
O375        O  0.84469133  0.62910787  0.09618857    -0.84800
O376        O  0.83684729  0.60050499  0.13639772    -0.81800
C377        C  0.85667604  0.59094001  0.14269325     0.98700
O378        O  0.87359502  0.60352812  0.15124620    -0.81900
O379        O  0.90145042  0.64389508  0.15964994    -0.84500
C380        C  0.91147856  0.64829710  0.13952757     1.03200
O381        O  0.89903819  0.65602213  0.12205570    -0.77300
O382        O  0.85904647  0.66596443  0.09355313    -0.77500
C383        C  0.85277116  0.64636022  0.08369834     1.03200
O384        O  0.81435290  0.66634770  0.11633753    -0.84800
O385        O  0.80967230  0.63956729  0.15763771    -0.81800
C386        C  0.81500431  0.62987583  0.17752053     0.98700
O387        O  0.83617271  0.62231402  0.18120117    -0.81900
O388        O  0.86150600  0.66470706  0.18568788    -0.84500
C389        C  0.87171653  0.68425583  0.18014935     1.03200
O390        O  0.88029718  0.68728597  0.15915789    -0.77300
O391        O  0.83871164  0.69297172  0.13252997    -0.77400
C392        C  0.81853482  0.68772012  0.12329044     1.03100
Cr393      Cr  0.82845753  0.63477170  0.12763447     1.93700
Cr394      Cr  0.86725411  0.63466077  0.16731292     1.93200
Cr395      Cr  0.86826218  0.67346451  0.12778200     1.39100
O396        O  0.85470570  0.64747989  0.14072824    -1.22500
O397        O  0.60826997  0.83500701  0.13661048    -0.84800
O398        O  0.63636893  0.84508532  0.09700506    -0.81800
C399        C  0.65313690  0.85361054  0.08429075     0.98700
O400        O  0.67287778  0.86005765  0.09383479    -0.81900
O401        O  0.66070084  0.89974886  0.12057489    -0.84500
C402        C  0.65199242  0.91247492  0.13722740     1.03200
O403        O  0.64706129  0.90312040  0.15762745    -0.77300
O404        O  0.60886266  0.87230407  0.14998529    -0.77500
C405        C  0.59734443  0.85440340  0.14194748     1.03200
O406        O  0.64923708  0.81080533  0.15789421    -0.84800
O407        O  0.67561637  0.81716951  0.11675481    -0.81800
C408        C  0.69633969  0.82210797  0.12514520     0.98700
O409        O  0.70032432  0.84243213  0.13445560    -0.81900
O410        O  0.69201707  0.88450867  0.15905014    -0.84500
C411        C  0.68917234  0.87641470  0.18027865     1.03200
O412        O  0.67011427  0.86526431  0.18554787    -0.77300
O413        O  0.63003765  0.83651398  0.18109442    -0.77400
C414        C  0.63870722  0.81565738  0.17742730     1.03100
Cr415      Cr  0.64312825  0.82904648  0.12797812     1.93700
Cr416      Cr  0.67954412  0.87058671  0.12791690     1.93200
Cr417      Cr  0.64009463  0.86846806  0.16664737     1.39100
O418        O  0.65409994  0.85609766  0.14076812    -1.22500
O419        O  0.66042774  0.63852906  0.39281514    -0.84800
O420        O  0.67321369  0.60859041  0.35558011    -0.81800
C421        C  0.65451913  0.59648791  0.35047803     0.98700
O422        O  0.63659506  0.60694525  0.34095207    -0.81900
O423        O  0.60575493  0.64369862  0.32639218    -0.84500
C424        C  0.59416256  0.64914829  0.34528963     1.03200
O425        O  0.60514051  0.65921517  0.36253220    -0.77300
O426        O  0.64213330  0.67376458  0.39239299    -0.77500
C427        C  0.64930548  0.65514895  0.40364304     1.03200
O428        O  0.68798807  0.67723382  0.37225013    -0.84800
O429        O  0.69743849  0.64867147  0.33266410    -0.81800
C430        C  0.69404723  0.63641714  0.31382065     0.98700
O431        O  0.67388222  0.62610375  0.31078207    -0.81900
O432        O  0.64536454  0.66519715  0.30063981    -0.84500
C433        C  0.63409241  0.68467843  0.30382222     1.03200
O434        O  0.62403097  0.68894449  0.32395713    -0.77300
O435        O  0.66271658  0.70013668  0.35214733    -0.77400
C436        C  0.68261806  0.69731313  0.36275500     1.03100
Cr437      Cr  0.67773912  0.64392919  0.36219065     1.93700
Cr438      Cr  0.64104012  0.63670883  0.32164957     1.93200
Cr439      Cr  0.63469994  0.67856850  0.35711552     1.39100
O440        O  0.65107191  0.65302187  0.34716399    -1.22500
O441        O  0.63224387  0.15959661  0.10483917    -0.84800
O442        O  0.60293500  0.17071531  0.14344618    -0.81800
C443        C  0.59157127  0.15148871  0.14824828     0.98700
O444        O  0.60239493  0.13346748  0.15710770    -0.81900
O445        O  0.64037240  0.10217886  0.16671979    -0.84500
C446        C  0.64617558  0.09268610  0.14666203     1.03200
O447        O  0.65608941  0.10513077  0.13041284    -0.77300
O448        O  0.66891988  0.14473216  0.10351056    -0.77500
C449        C  0.64963042  0.15102005  0.09296900     1.03200
O450        O  0.67067987  0.18767512  0.12567337    -0.84800
O451        O  0.64308005  0.19457184  0.16597807    -0.81800
C452        C  0.63212303  0.18984596  0.18537676     0.98700
O453        O  0.62311444  0.16907854  0.18876763    -0.81900
O454        O  0.66243196  0.13981666  0.19538881    -0.84500
C455        C  0.68207702  0.12922691  0.19088392     1.03200
O456        O  0.68594996  0.12128001  0.16981856    -0.77300
O457        O  0.69472402  0.16310330  0.14480512    -0.77400
C458        C  0.69115504  0.18321163  0.13485279     1.03100
Cr459      Cr  0.63796416  0.17604969  0.13599743     1.93700
Cr460      Cr  0.63321105  0.13693767  0.17504136     1.93200
Cr461      Cr  0.67439863  0.13464193  0.13799913     1.39100
O462        O  0.64836721  0.14909503  0.14961991    -1.22500
O463        O  0.60511747  0.37666178  0.34173881    -0.84800
O464        O  0.64552421  0.40433529  0.33287273    -0.81800
C465        C  0.65109462  0.41439869  0.35272847     0.98700
O466        O  0.65907338  0.40196458  0.37004467    -0.81900
O467        O  0.66826958  0.36253310  0.39895517    -0.84500
C468        C  0.64810451  0.35871121  0.40910440     1.03200
O469        O  0.63089585  0.35030995  0.39682780    -0.77300
O470        O  0.60195161  0.34044823  0.35743521    -0.77500
C471        C  0.59231199  0.36013937  0.35072549     1.03200
O472        O  0.62439569  0.33808482  0.31231935    -0.84800
O473        O  0.66598018  0.36407428  0.30687308    -0.81800
C474        C  0.68577361  0.37410251  0.31184758     0.98700
O475        O  0.68912613  0.38253859  0.33276895    -0.81900
O476        O  0.69403863  0.34107222  0.35902724    -0.84500
C477        C  0.68857139  0.32106304  0.36828909     1.03200
O478        O  0.66788048  0.31830503  0.37778330    -0.77300
O479        O  0.64079423  0.31232169  0.33722266    -0.77400
C480        C  0.63207575  0.31693489  0.31675880     1.03100
Cr481      Cr  0.63619720  0.36993631  0.32551231     1.93700
Cr482      Cr  0.67558498  0.37099743  0.36437225     1.93200
Cr483      Cr  0.63625238  0.33232766  0.36632753     1.39100
O484        O  0.64915993  0.35786657  0.35214517    -1.22500
O485        O  0.84143209  0.10465579  0.37536891    -0.84800
O486        O  0.83254010  0.14507360  0.40320882    -0.81800
C487        C  0.85258179  0.15028745  0.41300310     0.98700
O488        O  0.86955113  0.15882432  0.40042669    -0.81900
O489        O  0.89800526  0.16733344  0.36053816    -0.84500
C490        C  0.90811749  0.14728259  0.35602112     1.03200
O491        O  0.89572264  0.13007072  0.34775766    -0.77300
O492        O  0.85579626  0.10170083  0.33852642    -0.77500
C493        C  0.84992201  0.09202041  0.35844843     1.03200
O494        O  0.81143299  0.12373760  0.33735460    -0.84800
O495        O  0.80606829  0.16538706  0.36297917    -0.81800
C496        C  0.81124172  0.18556362  0.37211239     0.98700
O497        O  0.83218861  0.18908611  0.38044717    -0.81900
O498        O  0.85858572  0.19375153  0.33880375    -0.84500
C499        C  0.86855772  0.18818315  0.31907674     1.03200
O500        O  0.87697097  0.16713180  0.31622226    -0.77300
O501        O  0.83533199  0.14094293  0.31102605    -0.77400
C502        C  0.81505151  0.13212172  0.31634494     1.03100
Cr503      Cr  0.82493660  0.13570293  0.36886777     1.93700
Cr504      Cr  0.86370355  0.17522227  0.36910130     1.93200
Cr505      Cr  0.86492070  0.13584571  0.33039390     1.39100
O506        O  0.85130679  0.14876195  0.35626928    -1.22500
O507        O  0.89970543  0.36970909  0.15675090    -0.84800
O508        O  0.86108902  0.39897167  0.16715589    -0.81800
C509        C  0.85538827  0.40948710  0.14760228     0.98700
O510        O  0.84594428  0.39788320  0.13043608    -0.81900
O511        O  0.83507372  0.35914059  0.10124152    -0.84500
C512        C  0.85457913  0.35349286  0.09080454     1.03200
O513        O  0.87191798  0.34442932  0.10245732    -0.77300
O514        O  0.90110179  0.33328813  0.14134420    -0.77500
C515        C  0.91145157  0.35290079  0.14689565     1.03200
O516        O  0.87959386  0.33160243  0.18642193    -0.84800
O517        O  0.83935205  0.35908247  0.19306718    -0.81800
C518        C  0.81949755  0.36899827  0.18830978     0.98700
O519        O  0.81612623  0.37854629  0.16783091    -0.81900
O520        O  0.80901209  0.33772152  0.14088021    -0.84500
C521        C  0.81376062  0.31807093  0.13040961     1.03200
O522        O  0.83442981  0.31468861  0.12144247    -0.77300
O523        O  0.86080303  0.30704219  0.16220540    -0.77400
C524        C  0.87002693  0.31114531  0.18253689     1.03100
Cr525      Cr  0.86890459  0.36408859  0.17382840     1.93700
Cr526      Cr  0.82857115  0.36723635  0.13589364     1.93200
Cr527      Cr  0.86635291  0.32687675  0.13300897     1.39100
O528        O  0.85481479  0.35295914  0.14737785    -1.22500
O529        O  0.10168340  0.16022668  0.36827226    -0.84800
O530        O  0.14061957  0.17187409  0.39754516    -0.81800
C531        C  0.14694243  0.15215914  0.40752357     0.98700
O532        O  0.15669775  0.13569180  0.39521723    -0.81900
O533        O  0.16971243  0.10818514  0.35574842    -0.84500
C534        C  0.15089249  0.09625738  0.35083883     1.03200
O535        O  0.13264813  0.10722801  0.34261942    -0.77300
O536        O  0.10115686  0.14464679  0.33191094    -0.77500
C537        C  0.09015785  0.15072071  0.35103068     1.03200
O538        O  0.11980956  0.19100662  0.33045997    -0.84800
O539        O  0.16041641  0.19948321  0.35729688    -0.81800
C540        C  0.18045485  0.19583430  0.36732330     0.98700
O541        O  0.18446234  0.17548586  0.37696546    -0.81900
O542        O  0.19309052  0.14991040  0.33546585    -0.84500
C543        C  0.18915986  0.13926981  0.31575200     1.03200
O544        O  0.16902641  0.12899271  0.31206605    -0.77300
O545        O  0.13921413  0.16780806  0.30522453    -0.77400
C546        C  0.12834711  0.18735143  0.30955179     1.03100
Cr547      Cr  0.13179689  0.17871296  0.36264860     1.93700
Cr548      Cr  0.17392995  0.14302955  0.36484210     1.93200
Cr549      Cr  0.13620688  0.13824628  0.32495797     1.39100
O550        O  0.14708779  0.15320373  0.35092954    -1.22500
O551        O  0.16951467  0.36679261  0.10044937    -0.84800
O552        O  0.15602223  0.40490633  0.12985702    -0.81800
C553        C  0.14676903  0.41627458  0.14734630     0.98700
O554        O  0.14161778  0.40501298  0.16664757    -0.81900
O555        O  0.10456187  0.37392908  0.15592535    -0.84500
C556        C  0.09339432  0.35672317  0.14618764     1.03200
O557        O  0.10470905  0.33770821  0.14017205    -0.77300
O558        O  0.13320457  0.35122739  0.10170441    -0.77500
C559        C  0.15012281  0.36079913  0.08993040     1.03200
O560        O  0.19642805  0.34703055  0.14024121    -0.84800
O561        O  0.18707973  0.38729393  0.16740247    -0.81800
C562        C  0.18415878  0.37814769  0.18812597     0.98700
O563        O  0.16519906  0.36629415  0.19249220    -0.81900
O564        O  0.12613612  0.33645051  0.18513862    -0.84500
C565        C  0.13566929  0.31619138  0.18029433     1.03200
O566        O  0.14593569  0.31274831  0.16033878    -0.77300
O567        O  0.17288699  0.32254317  0.12037503    -0.77400
C568        C  0.19324337  0.32703265  0.12995410     1.03100
Cr569      Cr  0.17531618  0.37531524  0.13524745     1.93700
Cr570      Cr  0.13544109  0.36966403  0.17307557     1.93200
Cr571      Cr  0.13987377  0.33308833  0.13172536     1.39100
O572        O  0.15009257  0.35941013  0.14665141    -1.22500
O573        O  0.37242101  0.10651923  0.15209070    -0.84800
O574        O  0.40050209  0.14618664  0.16284232    -0.81800
C575        C  0.40997460  0.15219781  0.14289785     0.98700
O576        O  0.39717304  0.16077273  0.12614818    -0.81900
O577        O  0.35691295  0.17101444  0.09882114    -0.84500
C578        C  0.35068824  0.15153639  0.08864218     1.03200
O579        O  0.34149535  0.13446834  0.10056129    -0.77300
O580        O  0.33497647  0.10403376  0.13907620    -0.77500
C581        C  0.35529334  0.09434675  0.14336299     1.03200
O582        O  0.33566786  0.12287150  0.18453948    -0.84800
O583        O  0.36078152  0.16507821  0.19078133    -0.81800
C584        C  0.37021978  0.18520659  0.18602875     0.98700
O585        O  0.37847359  0.18969068  0.16516314    -0.81900
O586        O  0.33715671  0.19688792  0.13928218    -0.84500
C587        C  0.31657442  0.19203591  0.13098911     1.03200
O588        O  0.31165998  0.17099024  0.12340418    -0.77300
O589        O  0.30855735  0.14204325  0.16360841    -0.77400
C590        C  0.31462192  0.13144047  0.18287474     1.03100
Cr591      Cr  0.36638520  0.13632001  0.17055679     1.93700
Cr592      Cr  0.36636888  0.17741084  0.13322944     1.93200
Cr593      Cr  0.32621863  0.13877732  0.13259063     1.39100
O594        O  0.35304194  0.15076724  0.14524174    -1.22500
O595        O  0.39858409  0.34338834  0.36812009    -0.84800
O596        O  0.35874880  0.33466232  0.39665404    -0.81800
C597        C  0.35515933  0.35457971  0.40718135     0.98700
O598        O  0.34764733  0.37267208  0.39557614    -0.81900
O599        O  0.33867185  0.40287620  0.35698186    -0.84500
C600        C  0.35855500  0.41186782  0.35014003     1.03200
O601        O  0.37449341  0.39881210  0.34053861    -0.77300
O602        O  0.40131110  0.35825468  0.33130532    -0.77500
C603        C  0.41102198  0.35214160  0.35115412     1.03200
O604        O  0.37826526  0.31467513  0.33037576    -0.84800
O605        O  0.33627979  0.31072986  0.35643878    -0.81800
C606        C  0.31697395  0.31670751  0.36692268     0.98700
O607        O  0.31476030  0.33749579  0.37613363    -0.81900
O608        O  0.30895545  0.36574174  0.33607309    -0.84500
C609        C  0.31421555  0.37451484  0.31574698     1.03200
O610        O  0.33565149  0.38073406  0.31080680    -0.77300
O611        O  0.36056923  0.33870948  0.30472015    -0.77400
C612        C  0.37007973  0.31863194  0.30942539     1.03100
Cr613      Cr  0.36698333  0.32798536  0.36205481     1.93700
Cr614      Cr  0.32953961  0.36872069  0.36505861     1.93200
Cr615      Cr  0.36708015  0.36813559  0.32391980     1.39100
O616        O  0.35462741  0.35514328  0.35040793    -1.22500
O617        O  0.10569164  0.63697298  0.15179822    -0.84800
O618        O  0.14507351  0.60771288  0.16129315    -0.81800
C619        C  0.15228977  0.59819038  0.14176504     0.98700
O620        O  0.16169013  0.61088385  0.12537364    -0.81900
O621        O  0.16843641  0.65099895  0.09700030    -0.84500
C622        C  0.14788525  0.65532027  0.08775709     1.03200
O623        O  0.13117318  0.66409724  0.10042596    -0.77300
O624        O  0.10390555  0.67449458  0.14047259    -0.77500
C625        C  0.09348400  0.65456591  0.14386935     1.03200
O626        O  0.12549011  0.67383693  0.18358856    -0.84800
O627        O  0.16612770  0.64579858  0.18981410    -0.81800
C628        C  0.18673033  0.63761719  0.18439466     0.98700
O629        O  0.19136651  0.63131396  0.16290135    -0.81900
O630        O  0.19530810  0.67274024  0.13639665    -0.84500
C631        C  0.18978008  0.69221704  0.12611722     1.03200
O632        O  0.16882214  0.69517463  0.11770984    -0.77300
O633        O  0.14375254  0.70017595  0.16048123    -0.77400
C634        C  0.13358440  0.69507356  0.18020316     1.03100
Cr635      Cr  0.13663412  0.64204149  0.16961940     1.93700
Cr636      Cr  0.17715421  0.64247576  0.13134951     1.93200
Cr637      Cr  0.13792026  0.68139404  0.13078541     1.39100
O638        O  0.15062538  0.65511602  0.14395846    -1.22500
O639        O  0.40044931  0.64283088  0.32870461    -0.84800
O640        O  0.37050276  0.60446151  0.34098453    -0.81800
C641        C  0.35334160  0.59303505  0.35077591     0.98700
O642        O  0.33449900  0.60424812  0.35717841    -0.81900
O643        O  0.34844385  0.63241001  0.39546174    -0.84500
C644        C  0.35840494  0.64911693  0.40728156     1.03200
O645        O  0.36389980  0.66860223  0.39665626    -0.77300
O646        O  0.40101585  0.65671799  0.36582121    -0.77500
C647        C  0.41187955  0.64784063  0.34793423     1.03200
O648        O  0.35989053  0.66513066  0.30453273    -0.84800
O649        O  0.33182690  0.62515967  0.31281665    -0.81800
C650        C  0.31139521  0.63430427  0.31776965     0.98700
O651        O  0.30839241  0.64473864  0.33774397    -0.81900
O652        O  0.31842702  0.67150910  0.37826139    -0.84500
C653        C  0.32282676  0.69240363  0.36993079     1.03200
O654        O  0.34211403  0.69621759  0.35851294    -0.77300
O655        O  0.38105607  0.68801669  0.32892565    -0.77400
C656        C  0.37078248  0.68465144  0.30872751     1.03100
Cr657      Cr  0.36502004  0.63544720  0.32378711     1.93700
Cr658      Cr  0.32944427  0.63904295  0.36599765     1.93200
Cr659      Cr  0.37088505  0.67540788  0.36165854     1.39100
O660        O  0.35514964  0.64993950  0.35049532    -1.22500
O661        O  0.10968763  0.87534396  0.34221780    -0.84800
O662        O  0.14925680  0.90302172  0.33000333    -0.81800
C663        C  0.15397312  0.91368975  0.34965423     0.98700
O664        O  0.16251736  0.90207802  0.36729641    -0.81900
O665        O  0.17308933  0.86353953  0.39729536    -0.84500
C666        C  0.15339331  0.85800948  0.40757308     1.03200
O667        O  0.13666935  0.84855262  0.39543066    -0.77300
O668        O  0.10741020  0.83858105  0.35715052    -0.77500
C669        C  0.09754265  0.85852472  0.35164799     1.03200
O670        O  0.12688557  0.83673959  0.31267075    -0.84800
O671        O  0.16884573  0.86207627  0.30495139    -0.81800
C672        C  0.18877243  0.87214630  0.30911977     0.98700
O673        O  0.19249164  0.88164956  0.32968103    -0.81900
O674        O  0.19973493  0.84202635  0.35786371    -0.84500
C675        C  0.19514608  0.82206973  0.36771323     1.03200
O676        O  0.17429996  0.81784153  0.37622150    -0.77300
O677        O  0.14625153  0.81106429  0.33559175    -0.77400
C678        C  0.13487754  0.81569946  0.31639060     1.03100
Cr679      Cr  0.13976678  0.86847655  0.32446850     1.93700
Cr680      Cr  0.17995930  0.87128203  0.36227043     1.93200
Cr681      Cr  0.14207397  0.83092780  0.36505533     1.39100
O682        O  0.15388868  0.85691062  0.35071810    -1.22500
O683        O  0.40404520  0.87251610  0.15363103    -0.84800
O684        O  0.36576153  0.90356268  0.16252450    -0.81800
C685        C  0.35930455  0.91333071  0.14280723     0.98700
O686        O  0.34956380  0.90111223  0.12629406    -0.81900
O687        O  0.33775584  0.86149852  0.09914613    -0.84500
C688        C  0.35671599  0.85552192  0.08799108     1.03200
O689        O  0.37436645  0.84684409  0.09970591    -0.77300
O690        O  0.40378207  0.83559526  0.13938048    -0.77500
C691        C  0.41523115  0.85429789  0.14571590     1.03200
O692        O  0.38267687  0.83680064  0.18469645    -0.84800
O693        O  0.34321163  0.86553493  0.19065826    -0.81800
C694        C  0.32353322  0.87585114  0.18584391     0.98700
O695        O  0.31997932  0.88415429  0.16492748    -0.81900
O696        O  0.31211196  0.84223193  0.13990962    -0.84500
C697        C  0.31587157  0.82260369  0.12914317     1.03200
O698        O  0.33651270  0.81822676  0.12036985    -0.77300
O699        O  0.36385692  0.81113661  0.16136799    -0.77400
C700        C  0.37388242  0.81599900  0.18131897     1.03100
Cr701      Cr  0.37280535  0.86883942  0.17083058     1.93700
Cr702      Cr  0.33196766  0.87110223  0.13344414     1.93200
Cr703      Cr  0.36892498  0.83010023  0.13124432     1.39100
O704        O  0.35816247  0.85687064  0.14503264    -1.22500
C705        C  0.26888097  0.89550204  0.22329851    -0.11300
C706        C  0.26753370  0.87647808  0.23996564     0.11300
C707        C  0.28464583  0.85754100  0.23912754    -0.03100
C708        C  0.30295840  0.85851047  0.22155478    -0.05900
C709        C  0.30434026  0.87743651  0.20458354    -0.16600
C710        C  0.28708218  0.89647419  0.20555780     0.02300
C711        C  0.24725203  0.87633021  0.25744265     0.12200
C712        C  0.28321431  0.83615029  0.25637367     0.62900
H713        H  0.31593051  0.84393075  0.22043651     0.12300
C714        C  0.28781601  0.91792452  0.18835739     0.55000
H715        H  0.25523974  0.90949447  0.22416974     0.08100
C716        C  0.24809078  0.88946269  0.27927228    -0.05700
C717        C  0.22849392  0.88766832  0.29529889    -0.06500
C718        C  0.20796359  0.87349132  0.29010901    -0.16100
C719        C  0.20690657  0.86099363  0.26752475    -0.01700
C720        C  0.22669278  0.86284945  0.25163558    -0.09200
C721        C  0.26954765  0.90541771  0.28551217     0.65100
H722        H  0.22919631  0.89751562  0.31216658     0.10500
C723        C  0.18546824  0.84555391  0.25986406     0.63500
H724        H  0.22651233  0.85350242  0.23444440     0.07900
F725        F  0.27170210  0.93582981  0.19509678    -0.19600
F726        F  0.28174134  0.91057171  0.16525608    -0.15800
F727        F  0.31070163  0.92796260  0.18823164    -0.19300
F728        F  0.26196063  0.82361886  0.25256816    -0.22700
F729        F  0.28381888  0.84408521  0.28004992    -0.24200
F730        F  0.30223231  0.82024002  0.25310937    -0.18100
F731        F  0.18890888  0.83510699  0.23738027    -0.20600
F732        F  0.16488426  0.85964882  0.25847345    -0.21800
F733        F  0.18199790  0.82702423  0.27626784    -0.19000
F734        F  0.26700602  0.91613934  0.30797512    -0.19100
F735        F  0.27177493  0.92358699  0.26848575    -0.22900
F736        F  0.29052378  0.89189034  0.28578290    -0.24500
C737        C  0.35362735  0.73130931  0.26107674    -0.11300
C738        C  0.37640476  0.73928544  0.25344427     0.11300
C739        C  0.39745566  0.72994522  0.26465240    -0.03100
C740        C  0.39490345  0.71201060  0.28261600    -0.05900
C741        C  0.37209156  0.70347155  0.28968991    -0.16600
C742        C  0.35104227  0.71349365  0.27904221     0.02300
C743        C  0.37730240  0.75840015  0.23450825     0.12200
C744        C  0.42240733  0.73914210  0.25792076     0.62900
H745        H  0.41073659  0.70448515  0.29133275     0.12300
C746        C  0.32595162  0.70619971  0.28733877     0.55000
H747        H  0.33779690  0.73929802  0.25278174     0.08100
C748        C  0.37366859  0.75327731  0.20972944    -0.05700
C749        C  0.37302615  0.77259415  0.19313734    -0.06500
C750        C  0.37598200  0.79682490  0.20040646    -0.16100
C751        C  0.38015233  0.80176701  0.22543113    -0.01700
C752        C  0.38032398  0.78235130  0.24194764    -0.09200
C753        C  0.37043180  0.72749286  0.20087585     0.65100
H754        H  0.37009596  0.76878579  0.17416835     0.10500
C755        C  0.38397986  0.82716898  0.23521868     0.63500
H756        H  0.38264883  0.78566214  0.26110366     0.07900
F757        F  0.32164424  0.68230963  0.28150124    -0.19600
F758        F  0.30813192  0.72010118  0.27659711    -0.15800
F759        F  0.32416095  0.70920131  0.31207477    -0.19300
F760        F  0.42455800  0.76315752  0.26439894    -0.22700
F761        F  0.42602652  0.73699576  0.23328621    -0.24200
F762        F  0.44046804  0.72632820  0.26957329    -0.18100
F763        F  0.36445463  0.84157175  0.22940630    -0.20600
F764        F  0.40486652  0.83696291  0.22564170    -0.21800
F765        F  0.38636328  0.82740686  0.26014752    -0.19000
F766        F  0.36847287  0.72636870  0.17594205    -0.19100
F767        F  0.34969480  0.71763227  0.21068641    -0.22900
F768        F  0.39005538  0.71364090  0.20772114    -0.24500
C769        C  0.29253808  0.75425420  0.37690537    -0.11300
C770        C  0.26813672  0.74768541  0.37574570     0.11300
C771        C  0.26172636  0.72305277  0.37353734    -0.03100
C772        C  0.28020919  0.70562403  0.37313366    -0.05900
C773        C  0.30477065  0.71211121  0.37314926    -0.16600
C774        C  0.31112156  0.73692705  0.37544124     0.02300
C775        C  0.24980094  0.76721192  0.37455168     0.12200
C776        C  0.23556715  0.71535109  0.37028182     0.62900
H777        H  0.27555574  0.68671536  0.37159871     0.12300
C778        C  0.33722416  0.74531311  0.37657619     0.55000
H779        H  0.29688417  0.77329442  0.37818831     0.08100
C780        C  0.23849873  0.77676486  0.39541047    -0.05700
C781        C  0.22003037  0.79405829  0.39241707    -0.06500
C782        C  0.21443302  0.80360482  0.36954546    -0.16100
C783        C  0.22749634  0.79561366  0.34896244    -0.01700
C784        C  0.24442272  0.77689602  0.35177181    -0.09200
C785        C  0.24695898  0.76979996  0.42059865     0.65100
H786        H  0.21051938  0.80105388  0.40802855     0.10500
C787        C  0.22393306  0.80696808  0.32420802     0.63500
H788        H  0.25411272  0.76998418  0.33622875     0.07900
F789        F  0.34962961  0.73212457  0.39380411    -0.19600
F790        F  0.33898734  0.76948475  0.38277263    -0.15800
F791        F  0.34809891  0.74236076  0.35426515    -0.19300
F792        F  0.22662281  0.72499028  0.34901456    -0.22700
F793        F  0.22165232  0.72345101  0.38934442    -0.24200
F794        F  0.23322462  0.69047455  0.36915084    -0.18100
F795        F  0.23561527  0.79410940  0.30620661    -0.20600
F796        F  0.23308968  0.83021083  0.32429266    -0.21800
F797        F  0.19968897  0.80775035  0.31856420    -0.19000
F798        F  0.23346509  0.78106662  0.43839186    -0.19100
F799        F  0.27080496  0.77666652  0.42343862    -0.22900
F800        F  0.24521466  0.74513835  0.42402479    -0.24500
C801        C  0.23424240  0.73880863  0.10222257    -0.11300
C802        C  0.24319093  0.74816535  0.12398399     0.11300
C803        C  0.23421628  0.73958888  0.14635233    -0.03100
C804        C  0.21651904  0.72146503  0.14612062    -0.05900
C805        C  0.20779056  0.71175088  0.12443242    -0.16600
C806        C  0.21670990  0.72042066  0.10206304     0.02300
C807        C  0.26194397  0.76710080  0.12298740     0.12200
C808        C  0.24329247  0.74956579  0.17030946     0.62900
H809        H  0.20905661  0.71494509  0.16296525     0.12300
C810        C  0.20847268  0.70958320  0.07830877     0.55000
H811        H  0.24136497  0.74585359  0.08539143     0.08100
C812        C  0.28673149  0.76130985  0.12170498    -0.05700
C813        C  0.30361839  0.78005501  0.12396845    -0.06500
C814        C  0.29645301  0.80432231  0.12656340    -0.16100
C815        C  0.27143624  0.81019862  0.12594120    -0.01700
C816        C  0.25459215  0.79125517  0.12437835    -0.09200
C817        C  0.29523126  0.73553506  0.11748670     0.65100
H818        H  0.32269450  0.77578149  0.12381966     0.10500
C819        C  0.26230184  0.83610930  0.12648277     0.63500
H820        H  0.23540550  0.79505115  0.12476975     0.07900
F821        F  0.21279096  0.68497528  0.07856944    -0.19600
F822        F  0.22065761  0.71942589  0.05877564    -0.15800
F823        F  0.18406384  0.71374094  0.07507823    -0.19300
F824        F  0.23805356  0.77393441  0.17184403    -0.22700
F825        F  0.26799397  0.74642789  0.17212095    -0.24200
F826        F  0.23266096  0.73809075  0.18986293    -0.18100
F827        F  0.23773933  0.83742030  0.12194244    -0.20600
F828        F  0.27392591  0.84965074  0.10895141    -0.21800
F829        F  0.26644554  0.84612465  0.14899877    -0.19000
F830        F  0.32016975  0.73373767  0.11796068    -0.19100
F831        F  0.28734116  0.72780963  0.09507508    -0.22900
F832        F  0.28609646  0.72028788  0.13506039    -0.24500
C833        C  0.13668755  0.75350553  0.21760097    -0.11300
C834        C  0.12759591  0.74533322  0.23971814     0.11300
C835        C  0.11799606  0.72180996  0.24160524    -0.03100
C836        C  0.12015609  0.70621444  0.22167187    -0.05900
C837        C  0.13075994  0.71368495  0.19966823    -0.16600
C838        C  0.13823034  0.73830522  0.19728920     0.02300
C839        C  0.12892281  0.76192112  0.26065886     0.12200
C840        C  0.10526592  0.71344156  0.26447338     0.62900
H841        H  0.11358701  0.68786680  0.22333950     0.12300
C842        C  0.14781266  0.74895234  0.17380436     0.55000
H843        H  0.14313328  0.77197624  0.21664803     0.08100
C844        C  0.15017155  0.76389917  0.27471979    -0.05700
C845        C  0.15071327  0.78085160  0.29354831    -0.06500
C846        C  0.13138217  0.79665210  0.29788648    -0.16100
C847        C  0.10987834  0.79434152  0.28401670    -0.01700
C848        C  0.10912165  0.77689901  0.26552720    -0.09200
C849        C  0.17239203  0.74863502  0.26941632     0.65100
H850        H  0.16681951  0.78245726  0.30460851     0.10500
C851        C  0.08763381  0.80967895  0.28892271     0.63500
H852        H  0.09316198  0.77512243  0.25426890     0.07900
F853        F  0.15208270  0.77354607  0.17560472    -0.19600
F854        F  0.13114681  0.74558437  0.15548023    -0.15800
F855        F  0.16940029  0.73805933  0.16777481    -0.19300
F856        F  0.08542524  0.72799825  0.26873716    -0.22700
F857        F  0.12071920  0.71484203  0.28403961    -0.24200
F858        F  0.09725591  0.68981912  0.26261476    -0.18100
F859        F  0.06768621  0.80138149  0.27631629    -0.20600
F860        F  0.09179974  0.83329670  0.28189843    -0.21800
F861        F  0.08206104  0.80903115  0.31330605    -0.19000
F862        F  0.19102817  0.75337918  0.28542213    -0.19100
F863        F  0.18068946  0.75346760  0.24633499    -0.22900
F864        F  0.16674791  0.72437678  0.27116016    -0.24500
C865        C  0.24550907  0.63966230  0.22079282    -0.11300
C866        C  0.23835125  0.62866257  0.24242061     0.11300
C867        C  0.21428281  0.62034330  0.24497608    -0.03100
C868        C  0.19808217  0.62351496  0.22553299    -0.05900
C869        C  0.20526925  0.63441212  0.20370473    -0.16600
C870        C  0.22953720  0.64250116  0.20122744     0.02300
C871        C  0.25611416  0.62819158  0.26262397     0.12200
C872        C  0.20583569  0.60801933  0.26803549     0.62900
H873        H  0.17956819  0.61743057  0.22720718     0.12300
C874        C  0.23827417  0.65563062  0.17881875     0.55000
H875        H  0.26378933  0.64652420  0.21961412     0.08100
C876        C  0.27611903  0.61229970  0.26297963    -0.05700
C877        C  0.29330553  0.61464309  0.28160129    -0.06500
C878        C  0.29110436  0.63215964  0.29995949    -0.16100
C879        C  0.27031994  0.64741758  0.30000034    -0.01700
C880        C  0.25364951  0.64549453  0.28088122    -0.09200
C881        C  0.27952102  0.59319603  0.24357109     0.65100
H882        H  0.30888029  0.60282242  0.28171905     0.10500
C883        C  0.26534544  0.66569069  0.31985900     0.63500
H884        H  0.23838845  0.65769392  0.27986333     0.07900
F885        F  0.23717808  0.64058113  0.15893277    -0.19600
F886        F  0.26189140  0.66356789  0.18106373    -0.15800
F887        F  0.22391494  0.67558949  0.17511792    -0.19300
F888        F  0.20697134  0.62392971  0.28723089    -0.22700
F889        F  0.22037798  0.58830254  0.27291798    -0.24200
F890        F  0.18224344  0.59995718  0.26615757    -0.18100
F891        F  0.24441630  0.67874716  0.31569148    -0.20600
F892        F  0.28416049  0.68198798  0.32139559    -0.21800
F893        F  0.26256520  0.65372035  0.34164857    -0.19000
F894        F  0.29856155  0.57785174  0.24885966    -0.19100
F895        F  0.28426587  0.60413628  0.22160452    -0.22900
F896        F  0.25885297  0.57933779  0.24152351    -0.24500
C897        C  0.36924892  0.47807017  0.33552550    -0.11300
C898        C  0.36362456  0.48891772  0.35769144     0.11300
C899        C  0.35792484  0.47431264  0.37794758    -0.03100
C900        C  0.35722649  0.44904989  0.37495649    -0.05900
C901        C  0.36246595  0.43819644  0.35260915    -0.16600
C902        C  0.36918481  0.45285323  0.33265114     0.02300
C903        C  0.36155939  0.51564945  0.35816996     0.12200
C904        C  0.35227085  0.48538201  0.40243356     0.62900
H905        H  0.35213891  0.43753237  0.38998104     0.12300
C906        C  0.37528233  0.44208947  0.30814125     0.55000
H907        H  0.37317002  0.48969755  0.32024582     0.08100
C908        C  0.38195780  0.53096965  0.35781977    -0.05700
C909        C  0.37834162  0.55603991  0.35558447    -0.06500
C910        C  0.35510098  0.56628944  0.35414450    -0.16100
C911        C  0.33459854  0.55072198  0.35500174    -0.01700
C912        C  0.33836679  0.52561882  0.35665988    -0.09200
C913        C  0.40745861  0.52091948  0.35951656     0.65100
H914        H  0.39365185  0.56767970  0.35457261     0.10500
C915        C  0.30879045  0.56005208  0.35344643     0.63500
H916        H  0.32318193  0.51336274  0.35646100     0.07900
F917        F  0.37940074  0.45975176  0.29087218    -0.19600
F918        F  0.35637829  0.42785186  0.30016643    -0.15800
F919        F  0.39598139  0.42822627  0.30996953    -0.19300
F920        F  0.33103477  0.49843553  0.40118759    -0.22700
F921        F  0.37078671  0.50062191  0.40937891    -0.24200
F922        F  0.34962392  0.46790246  0.42017350    -0.18100
F923        F  0.30591207  0.57382522  0.33274791    -0.20600
F924        F  0.30354984  0.57382522  0.37362994    -0.21800
F925        F  0.29209754  0.54144042  0.35254820    -0.19000
F926        F  0.42452181  0.53911300  0.36137062    -0.19100
F927        F  0.41269603  0.50749363  0.33913438    -0.22900
F928        F  0.40957584  0.50631020  0.37969827    -0.24500
C929        C  0.38224214  0.97782310  0.13848190    -0.11300
C930        C  0.36029485  0.99050534  0.13799462     0.11300
C931        C  0.33817532  0.97767345  0.13709730    -0.03100
C932        C  0.33880546  0.95232946  0.13810032    -0.05900
C933        C  0.36067293  0.93972719  0.14005674    -0.16600
C934        C  0.38280432  0.95243264  0.13970368     0.02300
C935        C  0.36091509  0.01724385  0.13933643     0.12200
C936        C  0.31404917  0.99067907  0.13544888     0.62900
H937        H  0.32212345  0.94208155  0.13797668     0.12300
C938        C  0.40674049  0.93913361  0.14020163     0.55000
H939        H  0.39892332  0.98805678  0.13852802     0.08100
C940        C  0.36387141  0.02939154  0.16166401    -0.05700
C941        C  0.36257710  0.05473362  0.16194154    -0.06500
C942        C  0.35819676  0.06801546  0.14079492    -0.16100
C943        C  0.35616846  0.05596161  0.11833244    -0.01700
C944        C  0.35782275  0.03058490  0.11797417    -0.09200
C945        C  0.36800052  0.01563480  0.18511086     0.65100
H946        H  0.36435592  0.06443324  0.17885223     0.10500
C947        C  0.35277279  0.06985899  0.09491777     0.63500
H948        H  0.35619684  0.02085437  0.10107472     0.07900
F949        F  0.42609657  0.95472818  0.13742956    -0.19600
F950        F  0.40745058  0.92250148  0.12156329    -0.15800
F951        F  0.40936794  0.92721093  0.16202379    -0.19300
F952        F  0.31294338  0.00385002  0.11422632    -0.22700
F953        F  0.31133857  0.00614924  0.15486759    -0.24200
F954        F  0.29481176  0.97468736  0.13556845    -0.18100
F955        F  0.35272860  0.05471935  0.07500108    -0.20600
F956        F  0.37140126  0.08627955  0.09213654    -0.21800
F957        F  0.33100414  0.08206510  0.09535344    -0.19000
F958        F  0.36930124  0.03096810  0.20483230    -0.19100
F959        F  0.38947423  0.00297121  0.18382791    -0.22900
F960        F  0.34925933  0.99959563  0.18905689    -0.24500
C961        C  0.39315074  0.23041888  0.23198798    -0.11300
C962        C  0.37130763  0.24036727  0.24010818     0.11300
C963        C  0.34909844  0.23207650  0.23050697    -0.03100
C964        C  0.34953945  0.21347686  0.21324975    -0.05900
C965        C  0.37138746  0.20377983  0.20492078    -0.16600
C966        C  0.39357122  0.21208527  0.21442568     0.02300
C967        C  0.37227087  0.26010504  0.25810523     0.12200
C968        C  0.32517289  0.24334528  0.23790145     0.62900
H969        H  0.33283446  0.20682017  0.20553725     0.12300
C970        C  0.41742270  0.20129251  0.20628557     0.55000
H971        H  0.40988140  0.23731736  0.23941863     0.08100
C972        C  0.37361910  0.25547858  0.28318413    -0.05700
C973        C  0.37283411  0.27516503  0.29918147    -0.06500
C974        C  0.37154653  0.29921649  0.29086385    -0.16100
C975        C  0.37203619  0.30374944  0.26552205    -0.01700
C976        C  0.37207841  0.28393573  0.24961135    -0.09200
C977        C  0.37603859  0.22988307  0.29291559     0.65100
H978        H  0.37300900  0.27180022  0.31847336     0.10500
C979        C  0.37333697  0.32912124  0.25505661     0.63500
H980        H  0.37177948  0.28682987  0.23023171     0.07900
F981        F  0.41688814  0.17645867  0.20918166    -0.19600
F982        F  0.43666325  0.21020231  0.21953407    -0.15800
F983        F  0.42136668  0.20671339  0.18219937    -0.19300
F984        F  0.32462356  0.26728438  0.23074606    -0.22700
F985        F  0.32232834  0.24216385  0.26270276    -0.24200
F986        F  0.30573006  0.23166766  0.22735937    -0.18100
F987        F  0.39206537  0.34173834  0.26575313    -0.20600
F988        F  0.35183891  0.34110936  0.25899075    -0.21800
F989        F  0.37744518  0.32887859  0.23035703    -0.19000
F990        F  0.37714555  0.22941914  0.31792287    -0.19100
F991        F  0.39697277  0.21949254  0.28412268    -0.22900
F992        F  0.35650591  0.21607873  0.28578673    -0.24500
C993        C  0.14049409  0.48384207  0.16214154    -0.11300
C994        C  0.14269534  0.49411742  0.13909827     0.11300
C995        C  0.14501902  0.47888176  0.11871372    -0.03100
C996        C  0.14519087  0.45366241  0.12225113    -0.05900
C997        C  0.14345908  0.44312541  0.14543803    -0.16600
C998        C  0.14043285  0.45864169  0.16582929     0.02300
C999        C  0.14411945  0.52096047  0.13739553     0.12200
C1000       C  0.14776889  0.48918628  0.09337053     0.62900
H1001       H  0.14729043  0.44194004  0.10673997     0.12300
C1002       C  0.13756917  0.44917492  0.19152023     0.55000
H1003       H  0.13922211  0.49599218  0.17742330     0.08100
C1004       C  0.12373539  0.53604009  0.14101854    -0.05700
C1005       C  0.12713990  0.56125449  0.14194743    -0.06500
C1006       C  0.14997653  0.57172220  0.13856366    -0.16100
C1007       C  0.17016483  0.55668497  0.13378499    -0.01700
C1008       C  0.16691769  0.53145765  0.13392905    -0.09200
C1009       C  0.09851827  0.52559281  0.14379163     0.65100
H1010       H  0.11195086  0.57307859  0.14543436     0.10500
C1011       C  0.19517069  0.56709593  0.12936912     0.63500
H1012       H  0.18229766  0.51959531  0.13170415     0.07900
F1013       F  0.13500802  0.46767472  0.20816365    -0.19600
F1014       F  0.15770520  0.43591487  0.19808552    -0.15800
F1015       F  0.11711989  0.43488958  0.19303500    -0.19300
F1016       F  0.16954379  0.50122330  0.09137995    -0.22700
F1017       F  0.12915724  0.50512574  0.08853930    -0.24200
F1018       F  0.14730191  0.47127388  0.07592050    -0.18100
F1019       F  0.20208997  0.58108705  0.14887030    -0.20600
F1020       F  0.19497322  0.58114456  0.10867422    -0.21800
F1021       F  0.21233576  0.54917364  0.12623063    -0.19000
F1022       F  0.08111669  0.54352981  0.14490239    -0.19100
F1023       F  0.09702275  0.51210192  0.16477249    -0.22900
F1024       F  0.09325893  0.51097093  0.12423895    -0.24500
C1025       C  0.24169738  0.39485001  0.22319437    -0.11300
C1026       C  0.23921821  0.37993423  0.24349265     0.11300
C1027       C  0.21775362  0.36658040  0.24688281    -0.03100
C1028       C  0.20004648  0.36727116  0.22871894    -0.05900
C1029       C  0.20299402  0.38088729  0.20735490    -0.16600
C1030       C  0.22383412  0.39593171  0.20506968     0.02300
C1031       C  0.25926056  0.37902228  0.26124271     0.12200
C1032       C  0.21356518  0.35172195  0.26965737     0.62900
H1033       H  0.18371214  0.35685097  0.23115187     0.12300
C1034       C  0.22738932  0.41345486  0.18414234     0.55000
H1035       H  0.25805176  0.40547408  0.22158394     0.08100
C1036       C  0.27871979  0.36261924  0.25872843    -0.05700
C1037       C  0.29627713  0.36169599  0.27708131    -0.06500
C1038       C  0.29523975  0.37703330  0.29720376    -0.16100
C1039       C  0.27633914  0.39411602  0.29919715    -0.01700
C1040       C  0.25854655  0.39482287  0.28103879    -0.09200
C1041       C  0.28112591  0.34655622  0.23657211     0.65100
H1042       H  0.31090164  0.34878308  0.27601676     0.10500
C1043       C  0.27520789  0.41161009  0.32025240     0.63500
H1044       H  0.24369326  0.40751208  0.28226917     0.07900
F1045       F  0.23114394  0.40083825  0.16291089    -0.19600
F1046       F  0.24715874  0.42836537  0.18767670    -0.15800
F1047       F  0.20729785  0.42814697  0.18183066    -0.19300
F1048       F  0.21398118  0.36666718  0.28965659    -0.22700
F1049       F  0.23138661  0.33440966  0.27209317    -0.24200
F1050       F  0.19147321  0.34000549  0.26926366    -0.18100
F1051       F  0.25629776  0.42781617  0.31787034    -0.20600
F1052       F  0.29648671  0.42465261  0.32149859    -0.21800
F1053       F  0.27201296  0.39897082  0.34159231    -0.19000
F1054       F  0.30094770  0.33138254  0.23819554    -0.19100
F1055       F  0.28387190  0.36078214  0.21618789    -0.22900
F1056       F  0.26078862  0.33234495  0.23385395    -0.24500
C1057       C  0.25265935  0.29201811  0.13957130    -0.11300
C1058       C  0.24760117  0.27058647  0.12718612     0.11300
C1059       C  0.22503444  0.26771025  0.11562734    -0.03100
C1060       C  0.20834273  0.28686813  0.11638947    -0.05900
C1061       C  0.21309632  0.30855645  0.12890906    -0.16600
C1062       C  0.23591357  0.31117984  0.14077305     0.02300
C1063       C  0.26582605  0.25086163  0.12779712     0.12200
C1064       C  0.21839661  0.24419557  0.10308478     0.62900
H1065       H  0.19104050  0.28464898  0.10756458     0.12300
C1066       C  0.24289378  0.33368119  0.15495828     0.55000
H1067       H  0.26993979  0.29338842  0.14865256     0.08100
C1068       C  0.28598861  0.25032399  0.11202518    -0.05700
C1069       C  0.30208425  0.23062101  0.11341330    -0.06500
C1070       C  0.29833246  0.21156470  0.12975761    -0.16100
C1071       C  0.27842429  0.21245010  0.14578510    -0.01700
C1072       C  0.26264540  0.23231088  0.14474624    -0.09200
C1073       C  0.29049157  0.27053296  0.09398797     0.65100
H1074       H  0.31778208  0.22993830  0.10176368     0.10500
C1075       C  0.27374307  0.19230004  0.16364646     0.63500
H1076       H  0.24734279  0.23335032  0.15690105     0.07900
F1077       F  0.24263584  0.35362460  0.13985205    -0.19600
F1078       F  0.26586322  0.33196531  0.16471429    -0.15800
F1079       F  0.22698378  0.33706689  0.17394427    -0.19300
F1080       F  0.21694699  0.22578122  0.11993728    -0.22700
F1081       F  0.23570043  0.23834437  0.08604970    -0.24200
F1082       F  0.19633313  0.24572995  0.09141762    -0.18100
F1083       F  0.25437983  0.19728556  0.17867985    -0.20600
F1084       F  0.29390016  0.18874740  0.17798886    -0.21800
F1085       F  0.26860479  0.17148000  0.15091039    -0.19000
F1086       F  0.31047237  0.26595130  0.07965512    -0.19100
F1087       F  0.29445088  0.29196359  0.10616612    -0.22900
F1088       F  0.27069799  0.27321124  0.07898896    -0.24500
C1089       C  0.13867468  0.97783655  0.36955377    -0.11300
C1090       C  0.15026144  0.99121864  0.35140414     0.11300
C1091       C  0.16300154  0.97907466  0.33284777    -0.03100
C1092       C  0.16321948  0.95367503  0.33288419    -0.05900
C1093       C  0.15145544  0.94020465  0.35092880    -0.16600
C1094       C  0.13854353  0.95241976  0.36942763     0.02300
C1095       C  0.14922607  0.01799891  0.35257417     0.12200
C1096       C  0.17656806  0.99286974  0.31330371     0.62900
H1097       H  0.17308164  0.94403954  0.31899718     0.12300
C1098       C  0.12362595  0.94001559  0.38888966     0.55000
H1099       H  0.12917782  0.98741596  0.38375634     0.08100
C1100       C  0.12955355  0.03127944  0.34320431    -0.05700
C1101       C  0.13071416  0.05668936  0.34346290    -0.06500
C1102       C  0.15070546  0.06923897  0.35308712    -0.16100
C1103       C  0.16987616  0.05557174  0.36377195    -0.01700
C1104       C  0.16859365  0.03016201  0.36324968    -0.09200
C1105       C  0.10739110  0.01858599  0.33314391     0.65100
H1106       H  0.11591857  0.06692932  0.33579863     0.10500
C1107       C  0.19179884  0.06718074  0.37564063     0.63500
H1108       H  0.18308460  0.01934578  0.37075622     0.07900
F1109       F  0.10045118  0.94937255  0.38862434    -0.19600
F1110       F  0.13384198  0.94456374  0.41124127    -0.15800
F1111       F  0.12172675  0.91532203  0.38590121    -0.19300
F1112       F  0.19453608  0.00675926  0.32366473    -0.22700
F1113       F  0.16088824  0.00780078  0.30084477    -0.24200
F1114       F  0.18732021  0.97748641  0.29676408    -0.18100
F1115       F  0.20666564  0.05025661  0.38656277    -0.20600
F1116       F  0.18444217  0.08315105  0.39338541    -0.21800
F1117       F  0.20543138  0.07919416  0.35845112    -0.19000
F1118       F  0.09064316  0.03480611  0.32406698    -0.19100
F1119       F  0.09636551  0.00538438  0.35128639    -0.22900
F1120       F  0.11393331  0.00313178  0.31465391    -0.24500
C1121       C  0.26488195  0.27763441  0.38905693    -0.11300
C1122       C  0.25886588  0.26543763  0.36770209     0.11300
C1123       C  0.27140845  0.27058085  0.34600815    -0.03100
C1124       C  0.29064049  0.28710743  0.34676358    -0.05900
C1125       C  0.29678292  0.29932779  0.36813144    -0.16600
C1126       C  0.28360844  0.29478578  0.38967297     0.02300
C1127       C  0.23890765  0.24768361  0.36849854     0.12200
C1128       C  0.26411400  0.25911076  0.32212226     0.62900
H1129       H  0.30065816  0.29118406  0.33041838     0.12300
C1130       C  0.28944501  0.30759702  0.41325311     0.55000
H1131       H  0.25456254  0.27368644  0.40523846     0.08100
C1132       C  0.24252132  0.22366016  0.37626118    -0.05700
C1133       C  0.22277878  0.20773314  0.37607815    -0.06500
C1134       C  0.19971362  0.21483424  0.36785699    -0.16100
C1135       C  0.19638454  0.23915334  0.35984778    -0.01700
C1136       C  0.21603393  0.25521860  0.36097489    -0.09200
C1137       C  0.26719498  0.21489080  0.38453898     0.65100
H1138       H  0.22550774  0.18930389  0.38201543     0.10500
C1139       C  0.17265412  0.24840343  0.34970988     0.63500
H1140       H  0.21395705  0.27385584  0.35535326     0.07900
F1141       F  0.27661606  0.29803122  0.43250933    -0.19600
F1142       F  0.28354690  0.33180506  0.41136810    -0.15800
F1143       F  0.31378844  0.30533822  0.41841530    -0.19300
F1144       F  0.24111996  0.26659492  0.31588465    -0.22700
F1145       F  0.26433254  0.23420888  0.32406719    -0.24200
F1146       F  0.27958695  0.26557206  0.30353832    -0.18100
F1147       F  0.17367468  0.27269543  0.34372598    -0.20600
F1148       F  0.15459047  0.24555416  0.36674783    -0.21800
F1149       F  0.16704958  0.23583695  0.32884180    -0.19000
F1150       F  0.26712918  0.19045547  0.38994627    -0.19100
F1151       F  0.27412213  0.22732079  0.40505604    -0.22900
F1152       F  0.28410881  0.21873725  0.36655049    -0.24500
C1153       C  0.23935409  0.15498879  0.27115367    -0.11300
C1154       C  0.24376564  0.13233707  0.26070113     0.11300
C1155       C  0.23103716  0.11180440  0.26912899    -0.03100
C1156       C  0.21326972  0.11491820  0.28707475    -0.05900
C1157       C  0.20848289  0.13765708  0.29726045    -0.16600
C1158       C  0.22178366  0.15811443  0.28930264     0.02300
C1159       C  0.26146178  0.13088052  0.24050912     0.12200
C1160       C  0.23645324  0.08672321  0.25941116     0.62900
H1161       H  0.20314340  0.09948040  0.29359522     0.12300
C1162       C  0.21690888  0.18325458  0.29920405     0.55000
H1163       H  0.24963374  0.17032461  0.26463433     0.08100
C1164       C  0.25492154  0.13668251  0.21650729    -0.05700
C1165       C  0.27256603  0.13513275  0.19830054    -0.06500
C1166       C  0.29681861  0.12924122  0.20328055    -0.16100
C1167       C  0.30319300  0.12295963  0.22753170    -0.01700
C1168       C  0.28526423  0.12404664  0.24566404    -0.09200
C1169       C  0.22947130  0.14492693  0.21023455     0.65100
H1170       H  0.26741443  0.13882102  0.17984267     0.10500
C1171       C  0.32857389  0.11524322  0.23467723     0.63500
H1172       H  0.28969374  0.11979899  0.26427328     0.07900
F1173       F  0.19261489  0.18869544  0.29702137    -0.19600
F1174       F  0.22983514  0.20081541  0.28690349    -0.15800
F1175       F  0.22353802  0.18429203  0.32326497    -0.19300
F1176       F  0.26002288  0.08054219  0.26486507    -0.22700
F1177       F  0.23341843  0.08624626  0.23461111    -0.24200
F1178       F  0.22142179  0.06939545  0.26941990    -0.18100
F1179       F  0.33030477  0.10993856  0.25909497    -0.20600
F1180       F  0.34475932  0.13363314  0.22977629    -0.21800
F1181       F  0.33501832  0.09465019  0.22206629    -0.19000
F1182       F  0.22672752  0.14907085  0.18569512    -0.19100
F1183       F  0.22428985  0.16622422  0.22219343    -0.22900
F1184       F  0.21291077  0.12751872  0.21704429    -0.24500
C1185       C  0.11707025  0.24577824  0.27336529    -0.11300
C1186       C  0.12701066  0.23948845  0.25094292     0.11300
C1187       C  0.13609208  0.21587738  0.24740902    -0.03100
C1188       C  0.13555358  0.19953130  0.26688558    -0.05900
C1189       C  0.12594364  0.20574285  0.28970701    -0.16600
C1190       C  0.11555513  0.22916439  0.29266963     0.02300
C1191       C  0.12863571  0.25852392  0.23196130     0.12200
C1192       C  0.14653887  0.20787678  0.22325789     0.62900
H1193       H  0.14313207  0.18182399  0.26436702     0.12300
C1194       C  0.10255054  0.23698297  0.31560757     0.55000
H1195       H  0.11066402  0.26400190  0.27562041     0.08100
C1196       C  0.10803248  0.26756118  0.21966245    -0.05700
C1197       C  0.11104705  0.28671213  0.20311860    -0.06500
C1198       C  0.13397015  0.29606567  0.19776054    -0.16100
C1199       C  0.15466841  0.28608927  0.20902006    -0.01700
C1200       C  0.15148484  0.26814720  0.22674766    -0.09200
C1201       C  0.08307102  0.25689278  0.22371154     0.65100
H1202       H  0.09553754  0.29437986  0.19398368     0.10500
C1203       C  0.17996415  0.29440652  0.20245334     0.63500
H1204       H  0.16689487  0.26130465  0.23662892     0.07900
F1205       F  0.09290938  0.25998742  0.31354949    -0.19600
F1206       F  0.11831597  0.23719159  0.33490588    -0.15800
F1207       F  0.08370171  0.22130850  0.32040105    -0.19300
F1208       F  0.16808996  0.21968188  0.21889930    -0.22700
F1209       F  0.13047308  0.21307234  0.20482921    -0.24200
F1210       F  0.15107429  0.18327289  0.22278427    -0.18100
F1211       F  0.18193639  0.31900213  0.20587643    -0.20600
F1212       F  0.18466447  0.28907900  0.17849492    -0.21800
F1213       F  0.19742493  0.28317749  0.21643121    -0.19000
F1214       F  0.06635601  0.26606526  0.20748939    -0.19100
F1215       F  0.07512980  0.26215778  0.24678866    -0.22900
F1216       F  0.08382866  0.23208957  0.22077110    -0.24500
C1217       C  0.97553862  0.35173156  0.12148040    -0.11300
C1218       C  0.98876206  0.35879446  0.14189772     0.11300
C1219       C  0.97642908  0.36564490  0.16325976    -0.03100
C1220       C  0.95110387  0.36399050  0.16378469    -0.05900
C1221       C  0.93790589  0.35549613  0.14387179    -0.16600
C1222       C  0.95019157  0.34967586  0.12211421     0.02300
C1223       C  0.01557228  0.35777231  0.14083625     0.12200
C1224       C  0.98996880  0.37430556  0.18552131     0.62900
H1225       H  0.94136949  0.36874821  0.18009421     0.12300
C1226       C  0.93670061  0.34192661  0.09951836     0.55000
H1227       H  0.98539292  0.34721934  0.10517823     0.08100
C1228       C  0.02823566  0.33571128  0.14344702    -0.05700
C1229       C  0.05361855  0.33622247  0.14441229    -0.06500
C1230       C  0.06665781  0.35801434  0.14320867    -0.16100
C1231       C  0.05384007  0.38008656  0.13976908    -0.01700
C1232       C  0.02844798  0.37939941  0.13824982    -0.09200
C1233       C  0.01493095  0.31177461  0.14562709     0.65100
H1234       H  0.06347291  0.31950735  0.14684440     0.10500
C1235       C  0.06656269  0.40436581  0.13785023     0.63500
H1236       H  0.01826863  0.39593045  0.13585241     0.07900
F1237       F  0.92562300  0.31986546  0.10333163    -0.19600
F1238       F  0.95199489  0.33950937  0.07985750    -0.15800
F1239       F  0.91948227  0.35907850  0.09373265    -0.19300
F1240       F  0.00176508  0.39571504  0.18038924    -0.22700
F1241       F  0.00670427  0.35715070  0.19259197    -0.24200
F1242       F  0.97458018  0.37843176  0.20481693    -0.18100
F1243       F  0.05092917  0.42260174  0.13083457    -0.20600
F1244       F  0.08484651  0.40315267  0.12087156    -0.21800
F1245       F  0.07611731  0.41065917  0.16007244    -0.19000
F1246       F  0.03058641  0.29268514  0.14964804    -0.19100
F1247       F  0.00242776  0.30713553  0.12450682    -0.22900
F1248       F  0.99881574  0.31263241  0.16471538    -0.24500
C1249       C  0.97322073  0.12355751  0.36193409    -0.11300
C1250       C  0.98605957  0.14538185  0.36155396     0.11300
C1251       C  0.97338549  0.16751444  0.36036516    -0.03100
C1252       C  0.94805917  0.16703076  0.35964469    -0.05900
C1253       C  0.93490952  0.14524068  0.35898641    -0.16600
C1254       C  0.94776768  0.12295855  0.36048005     0.02300
C1255       C  0.01278910  0.14460668  0.35953777     0.12200
C1256       C  0.98655529  0.19157001  0.35842638     0.62900
H1257       H  0.93838231  0.18396482  0.35830108     0.12300
C1258       C  0.93511453  0.09860782  0.36005236     0.55000
H1259       H  0.98347580  0.10689866  0.36238226     0.08100
C1260       C  0.02819010  0.14336662  0.37988058    -0.05700
C1261       C  0.05334368  0.14489436  0.37622507    -0.06500
C1262       C  0.06344004  0.14754596  0.35296776    -0.16100
C1263       C  0.04771048  0.14835106  0.33254791    -0.01700
C1264       C  0.02268487  0.14638390  0.33635037    -0.09200
C1265       C  0.01804423  0.14041766  0.40523383     0.65100
H1266       H  0.06537330  0.14412268  0.39164888     0.10500
C1267       C  0.05675092  0.15246001  0.30688119     0.63500
H1268       H  0.01032986  0.14700192  0.32116607     0.07900
F1269       F  0.91732998  0.09786214  0.37759944    -0.19600
F1270       F  0.95092517  0.07973203  0.36452186    -0.15800
F1271       F  0.92498060  0.09488422  0.33751352    -0.19300
F1272       F  0.99810555  0.19304756  0.33631649    -0.22700
F1273       F  0.00348626  0.19371912  0.37664726    -0.24200
F1274       F  0.97087906  0.21097432  0.36024823    -0.18100
F1275       F  0.03795499  0.15526985  0.29058939    -0.20600
F1276       F  0.07033339  0.13289333  0.29938714    -0.21800
F1277       F  0.07059215  0.17323561  0.30596781    -0.19000
F1278       F  0.03608648  0.14040201  0.42257126    -0.19100
F1279       F  0.00570380  0.11876417  0.40685814    -0.22900
F1280       F  0.00234559  0.15911143  0.41047068    -0.24500
C1281       C  0.88899757  0.22606000  0.26468129    -0.11300
C1282       C  0.86902027  0.24133522  0.26170016     0.11300
C1283       C  0.84881370  0.23880197  0.27717242    -0.03100
C1284       C  0.84994715  0.22185536  0.29614077    -0.05900
C1285       C  0.86982190  0.20630056  0.29913169    -0.16600
C1286       C  0.88973247  0.20830198  0.28298251     0.02300
C1287       C  0.86957541  0.25933131  0.24166639     0.12200
C1288       C  0.82598419  0.25358056  0.27336683     0.62900
H1289       H  0.83487754  0.22018195  0.30849679     0.12300
C1290       C  0.91187049  0.19221281  0.28511516     0.55000
H1291       H  0.90396895  0.22803179  0.25222636     0.08100
C1292       C  0.88081371  0.28210465  0.24417905    -0.05700
C1293       C  0.88059360  0.29818809  0.22442491    -0.06500
C1294       C  0.86978277  0.29223682  0.20210402    -0.16100
C1295       C  0.85871444  0.26898836  0.19966448    -0.01700
C1296       C  0.85908953  0.25300657  0.21955393    -0.09200
C1297       C  0.89346173  0.28914812  0.26750944     0.65100
H1298       H  0.88910738  0.31566911  0.22639065     0.10500
C1299       C  0.84629633  0.26068555  0.17656540     0.63500
H1300       H  0.85098429  0.23525461  0.21815494     0.07900
F1301       F  0.93020195  0.19951609  0.26971249    -0.19600
F1302       F  0.90585474  0.16870869  0.27917756    -0.15800
F1303       F  0.92074093  0.19292444  0.30848667    -0.19300
F1304       F  0.81644658  0.24874208  0.25078577    -0.22700
F1305       F  0.83115302  0.27795074  0.27494688    -0.24200
F1306       F  0.80846115  0.24820526  0.29041796    -0.18100
F1307       F  0.83711020  0.23749468  0.17860264    -0.20600
F1308       F  0.86260710  0.26065558  0.15761539    -0.21800
F1309       F  0.82716461  0.27585280  0.17130883    -0.19000
F1310       F  0.90169121  0.31276465  0.26688023    -0.19100
F1311       F  0.91308941  0.27415933  0.27121181    -0.22900
F1312       F  0.87782217  0.28697014  0.28687063    -0.24500
C1313       C  0.52587534  0.37403090  0.33768429    -0.11300
C1314       C  0.51467352  0.36247732  0.35728192     0.11300
C1315       C  0.52903367  0.35133159  0.37529190    -0.03100
C1316       C  0.55431470  0.35188727  0.37282431    -0.05900
C1317       C  0.56566897  0.36309311  0.35302854    -0.16600
C1318       C  0.55120660  0.37480311  0.33525283     0.02300
C1319       C  0.48788858  0.36031487  0.35708604     0.12200
C1320       C  0.51772418  0.33841289  0.39675345     0.62900
H1321       H  0.56548574  0.34296571  0.38616759     0.12300
C1322       C  0.56215160  0.38721544  0.31328900     0.55000
H1323       H  0.51444211  0.38199794  0.32393399     0.08100
C1324       C  0.47236142  0.37976929  0.36317185    -0.05700
C1325       C  0.44718632  0.37637857  0.36127659    -0.06500
C1326       C  0.43740759  0.35421435  0.35389489    -0.16100
C1327       C  0.45287901  0.33467073  0.34839449    -0.01700
C1328       C  0.47796801  0.33824527  0.34957691    -0.09200
C1329       C  0.48231307  0.40386938  0.37169154     0.65100
H1330       H  0.43489672  0.39103390  0.36542325     0.10500
C1331       C  0.44281118  0.31019846  0.34126849     0.63500
H1332       H  0.49016012  0.32376971  0.34461310     0.07900
F1333       F  0.57563850  0.40693556  0.32058469    -0.19600
F1334       F  0.54463073  0.39546886  0.29742912    -0.15800
F1335       F  0.57675055  0.37120468  0.30083790    -0.19300
F1336       F  0.50527249  0.31823855  0.38895834    -0.22700
F1337       F  0.50192864  0.35371392  0.40856774    -0.24200
F1338       F  0.53495582  0.33088759  0.41326875    -0.18100
F1339       F  0.42926032  0.31242312  0.32039272    -0.20600
F1340       F  0.42833439  0.30140408  0.35967328    -0.21800
F1341       F  0.46093737  0.29349438  0.33704918    -0.19000
F1342       F  0.46405208  0.41986723  0.37771040    -0.19100
F1343       F  0.49604811  0.41433494  0.35363729    -0.22900
F1344       F  0.49657647  0.40045061  0.39192002    -0.24500
C1345       C  0.74105283  0.27856767  0.35280191    -0.11300
C1346       C  0.73783836  0.26043439  0.37014513     0.11300
C1347       C  0.71896889  0.26240840  0.38724768    -0.03100
C1348       C  0.70333048  0.28241991  0.38588796    -0.05900
C1349       C  0.70639910  0.30079650  0.36850444    -0.16600
C1350       C  0.72570614  0.29879139  0.35148964     0.02300
C1351       C  0.75579482  0.24053853  0.37090884     0.12200
C1352       C  0.71570784  0.24369181  0.40711860     0.62900
H1353       H  0.68876211  0.28407122  0.39884914     0.12300
C1354       C  0.73025618  0.31745052  0.33173897     0.55000
H1355       H  0.75607620  0.27677654  0.34036920     0.08100
C1356       C  0.75484816  0.22064262  0.35492606    -0.05700
C1357       C  0.77324065  0.20316384  0.35619171    -0.06500
C1358       C  0.79255351  0.20499667  0.37270765    -0.16100
C1359       C  0.79335548  0.22512534  0.38873178    -0.01700
C1360       C  0.77498308  0.24263180  0.38724577    -0.09200
C1361       C  0.73461383  0.21795195  0.33653022     0.65100
H1362       H  0.77281867  0.18800587  0.34383721     0.10500
C1363       C  0.81309971  0.22832902  0.40756588     0.63500
H1364       H  0.77547140  0.25841423  0.39880427     0.07900
F1365       F  0.70957519  0.32072221  0.31810678    -0.19600
F1366       F  0.74847884  0.31039540  0.31610887    -0.15800
F1367       F  0.73716085  0.33915722  0.34199831    -0.19300
F1368       F  0.73559152  0.24383095  0.42222530    -0.22700
F1369       F  0.71322669  0.22093670  0.39715841    -0.24200
F1370       F  0.69544876  0.24828068  0.42104651    -0.18100
F1371       F  0.83494537  0.23273386  0.39626029    -0.20600
F1372       F  0.81482455  0.20776823  0.42172047    -0.21800
F1373       F  0.80845342  0.24759977  0.42282600    -0.19000
F1374       F  0.73677168  0.19683515  0.32328760    -0.19100
F1375       F  0.73500891  0.23712749  0.32050199    -0.22900
F1376       F  0.71254074  0.21750645  0.34818499    -0.24500
C1377       C  0.77721171  0.35434742  0.24068817    -0.11300
C1378       C  0.76097518  0.37367646  0.23913502     0.11300
C1379       C  0.76425140  0.39177790  0.22136926    -0.03100
C1380       C  0.78391766  0.38972154  0.20548157    -0.05900
C1381       C  0.80005961  0.37012375  0.20667179    -0.16600
C1382       C  0.79638886  0.35175006  0.22428981     0.02300
C1383       C  0.74090647  0.37446896  0.25676259     0.12200
C1384       C  0.74704451  0.41307378  0.21913514     0.62900
H1385       H  0.78687076  0.40357619  0.19193713     0.12300
C1386       C  0.81176320  0.32898884  0.22533103     0.55000
H1387       H  0.77443546  0.34101879  0.25479822     0.08100
C1388       C  0.72065160  0.35905630  0.25485942    -0.05700
C1389       C  0.70311085  0.35980272  0.27316591    -0.06500
C1390       C  0.70500089  0.37558963  0.29304941    -0.16100
C1391       C  0.72503380  0.39172169  0.29431198    -0.01700
C1392       C  0.74291328  0.39033130  0.27632327    -0.09200
C1393       C  0.71754707  0.34192739  0.23358689     0.65100
H1394       H  0.68787445  0.34758731  0.27220129     0.10500
C1395       C  0.72765974  0.41072081  0.31398414     0.63500
H1396       H  0.75887135  0.40159973  0.27740900     0.07900
F1397       F  0.81249030  0.31822186  0.20277375    -0.19600
F1398       F  0.80255308  0.31218469  0.24145178    -0.15800
F1399       F  0.83492592  0.33468566  0.23270388    -0.19300
F1400       F  0.74861347  0.42742276  0.23950127    -0.22700
F1401       F  0.72358592  0.40487734  0.21669495    -0.24200
F1402       F  0.75233115  0.42732466  0.19922331    -0.18100
F1403       F  0.73204842  0.39970204  0.33600454    -0.20600
F1404       F  0.70681851  0.42444505  0.31534915    -0.21800
F1405       F  0.74664765  0.42636527  0.30938750    -0.19000
F1406       F  0.69561665  0.32993383  0.23439856    -0.19100
F1407       F  0.73563690  0.32473432  0.23369771    -0.22900
F1408       F  0.71853704  0.35473694  0.21212791    -0.24500
C1409       C  0.52831501  0.15369031  0.12134712    -0.11300
C1410       C  0.51416637  0.15210368  0.14232849     0.11300
C1411       C  0.52552620  0.14980792  0.16518951    -0.03100
C1412       C  0.55090568  0.14889403  0.16619867    -0.05900
C1413       C  0.56505782  0.15099936  0.14528349    -0.16600
C1414       C  0.55372775  0.15373974  0.12247660     0.02300
C1415       C  0.48742728  0.15246666  0.13990085     0.12200
C1416       C  0.51089528  0.14869872  0.18841950     0.62900
H1417       H  0.55998967  0.14710361  0.18346025     0.12300
C1418       C  0.56844030  0.15635899  0.09948158     0.55000
H1419       H  0.51922079  0.15519888  0.10407509     0.08100
C1420       C  0.47428030  0.17428828  0.13735888    -0.05700
C1421       C  0.44886883  0.17330145  0.13759964    -0.06500
C1422       C  0.43649606  0.15132091  0.14015761    -0.16100
C1423       C  0.44962903  0.12940885  0.14105432    -0.01700
C1424       C  0.47503210  0.13037020  0.14082157    -0.09200
C1425       C  0.48702605  0.19844466  0.13456606     0.65100
H1426       H  0.43839778  0.18979821  0.13640942     0.10500
C1427       C  0.43682046  0.10519612  0.14192277     0.63500
H1428       H  0.48550266  0.11387640  0.14204709     0.07900
F1429       F  0.58163828  0.17755182  0.10022993    -0.19600
F1430       F  0.55395002  0.15707423  0.07909401    -0.15800
F1431       F  0.58400118  0.13695603  0.09728830    -0.19300
F1432       F  0.49667346  0.12818332  0.18856637    -0.22700
F1433       F  0.49622330  0.16883511  0.19019074    -0.24200
F1434       F  0.52556409  0.14805703  0.20868571    -0.18100
F1435       F  0.45287463  0.08610037  0.14011168    -0.20600
F1436       F  0.42067620  0.10357691  0.12289582    -0.21800
F1437       F  0.42445807  0.10289631  0.16351292    -0.19000
F1438       F  0.47081597  0.21746278  0.13339295    -0.19100
F1439       F  0.50045014  0.19850502  0.11349323    -0.22900
F1440       F  0.50223488  0.20242932  0.15397407    -0.24500
C1441       C  0.74944629  0.21971811  0.14394368    -0.11300
C1442       C  0.74380017  0.24062070  0.13086579     0.11300
C1443       C  0.72209833  0.24190259  0.11758841    -0.03100
C1444       C  0.70567773  0.22270461  0.11944751    -0.05900
C1445       C  0.71062676  0.20185838  0.13330407    -0.16600
C1446       C  0.73341590  0.20000292  0.14525748     0.02300
C1447       C  0.76130271  0.26079042  0.13097301     0.12200
C1448       C  0.71646757  0.26337624  0.10134029     0.62900
H1449       H  0.68869800  0.22399514  0.10988166     0.12300
C1450       C  0.74116937  0.17766993  0.15934213     0.55000
H1451       H  0.76665427  0.21912556  0.15324835     0.08100
C1452       C  0.76177585  0.27812933  0.14971370    -0.05700
C1453       C  0.77865985  0.29702622  0.14831046    -0.06500
C1454       C  0.79532590  0.29865941  0.12917141    -0.16100
C1455       C  0.79461372  0.28120856  0.11029161    -0.01700
C1456       C  0.77763712  0.26241625  0.11176430    -0.09200
C1457       C  0.74493527  0.27627161  0.17134651     0.65100
H1458       H  0.77952286  0.31024859  0.16271542     0.10500
C1459       C  0.81112218  0.28244797  0.08834879     0.63500
H1460       H  0.77694518  0.24864343  0.09786768     0.07900
F1461       F  0.72554072  0.17370300  0.17845388    -0.19600
F1462       F  0.76419370  0.18004013  0.16882724    -0.15800
F1463       F  0.74133588  0.15778773  0.14419582    -0.19300
F1464       F  0.73345477  0.26480877  0.08307104    -0.22700
F1465       F  0.71692618  0.28453940  0.11457682    -0.24200
F1466       F  0.69393495  0.26141298  0.09067345    -0.18100
F1467       F  0.83454332  0.27684664  0.09498721    -0.20600
F1468       F  0.81036450  0.30539132  0.07841619    -0.21800
F1469       F  0.80422031  0.26629117  0.07054331    -0.19000
F1470       F  0.74753267  0.29569140  0.18689268    -0.19100
F1471       F  0.74995213  0.25539521  0.18415181    -0.22900
F1472       F  0.72117046  0.27564331  0.16371313    -0.24500
C1473       C  0.73763977  0.11069998  0.22820763    -0.11300
C1474       C  0.73598976  0.12691367  0.24755273     0.11300
C1475       C  0.71620900  0.14302837  0.24885681    -0.03100
C1476       C  0.69891542  0.14267495  0.23023554    -0.05900
C1477       C  0.70065069  0.12679080  0.21040248    -0.16600
C1478       C  0.72010365  0.10991449  0.20976074     0.02300
C1479       C  0.75610482  0.12759667  0.26534886     0.12200
C1480       C  0.71355492  0.16081413  0.26962841     0.62900
H1481       H  0.68414811  0.15549340  0.23077161     0.12300
C1482       C  0.72249716  0.09084113  0.19016398     0.55000
H1483       H  0.75317027  0.09880668  0.22752137     0.08100
C1484       C  0.75871325  0.11014610  0.28389681    -0.05700
C1485       C  0.77840928  0.11213469  0.29988577    -0.06500
C1486       C  0.79539036  0.13097495  0.29797064    -0.16100
C1487       C  0.79242175  0.14865659  0.27948540    -0.01700
C1488       C  0.77309358  0.14621287  0.26316941    -0.09200
C1489       C  0.74071775  0.08962598  0.28686678     0.65100
H1490       H  0.78073358  0.09882543  0.31405664     0.10500
C1491       C  0.80862687  0.17073782  0.27756151     0.63500
H1492       H  0.77082360  0.15910579  0.24859674     0.07900
F1493       F  0.74045337  0.07422710  0.19545558    -0.19600
F1494       F  0.72825084  0.10165446  0.16835937    -0.15800
F1495       F  0.70105847  0.07823409  0.18796836    -0.19300
F1496       F  0.73184262  0.17777685  0.26867462    -0.22700
F1497       F  0.71471546  0.14871953  0.29148641    -0.24200
F1498       F  0.69171997  0.17298363  0.26873901    -0.18100
F1499       F  0.80023139  0.18715577  0.26061119    -0.20600
F1500       F  0.83165689  0.16391090  0.27072778    -0.21800
F1501       F  0.80942466  0.18236811  0.29966138    -0.19000
F1502       F  0.74578389  0.07556942  0.30697000    -0.19100
F1503       F  0.74133465  0.07483089  0.26677062    -0.22900
F1504       F  0.71766353  0.09883521  0.28952511    -0.24500
C1505       C  0.63989659  0.25806452  0.28060732    -0.11300
C1506       C  0.62824182  0.26408911  0.25902457     0.11300
C1507       C  0.61661784  0.28670195  0.25678609    -0.03100
C1508       C  0.61797929  0.30309766  0.27621366    -0.05900
C1509       C  0.63056975  0.29764374  0.29774490    -0.16600
C1510       C  0.64177181  0.27443957  0.29995265     0.02300
C1511       C  0.62893612  0.24611460  0.23910802     0.12200
C1512       C  0.60287287  0.29342096  0.23396499     0.62900
H1513       H  0.60921889  0.32050220  0.27454317     0.12300
C1514       C  0.65634433  0.26674926  0.32199757     0.55000
H1515       H  0.64813786  0.24034986  0.28182699     0.08100
C1516       C  0.64973254  0.24305861  0.22452248    -0.05700
C1517       C  0.64982558  0.22453831  0.20715397    -0.06500
C1518       C  0.63003954  0.20890989  0.20413214    -0.16100
C1519       C  0.60904043  0.21226990  0.21851398    -0.01700
C1520       C  0.60903194  0.23076742  0.23599327    -0.09200
C1521       C  0.67180852  0.25916292  0.22742386     0.65100
H1522       H  0.66570038  0.22178964  0.19603144     0.10500
C1523       C  0.58650338  0.19696568  0.21511419     0.63500
H1524       H  0.59352053  0.23325884  0.24767223     0.07900
F1525       F  0.67525439  0.28264842  0.32548217    -0.19600
F1526       F  0.66622763  0.24390971  0.31937262    -0.15800
F1527       F  0.64169279  0.26625107  0.34224935    -0.19300
F1528       F  0.58372715  0.27772239  0.23075907    -0.22700
F1529       F  0.61796233  0.29203107  0.21410140    -0.24200
F1530       F  0.59371174  0.31667217  0.23506208    -0.18100
F1531       F  0.59092077  0.17350600  0.22251881    -0.20600
F1532       F  0.57976216  0.19704897  0.19102041    -0.21800
F1533       F  0.56723111  0.20567391  0.22846382    -0.19000
F1534       F  0.68946807  0.25396058  0.21047990    -0.19100
F1535       F  0.68176539  0.25597603  0.25011737    -0.22900
F1536       F  0.66532533  0.28311918  0.22462253    -0.24500
C1537       C  0.52836358  0.63135659  0.33175187    -0.11300
C1538       C  0.51628619  0.64378281  0.35014478     0.11300
C1539       C  0.52972294  0.65596154  0.36810107    -0.03100
C1540       C  0.55504169  0.65648308  0.36613420    -0.05900
C1541       C  0.56738322  0.64541556  0.34677224    -0.16600
C1542       C  0.55368828  0.63212300  0.32938758     0.02300
C1543       C  0.48947182  0.64477980  0.34923357     0.12200
C1544       C  0.51733350  0.66860740  0.38908452     0.62900
H1545       H  0.56533300  0.66620909  0.37958488     0.12300
C1546       C  0.56516330  0.61915502  0.30803820     0.55000
H1547       H  0.51750263  0.62180733  0.31858383     0.08100
C1548       C  0.47723157  0.66076870  0.33336739    -0.05700
C1549       C  0.45182556  0.66079838  0.33324272    -0.06500
C1550       C  0.43849012  0.64566430  0.34858169    -0.16100
C1551       C  0.45071060  0.62960099  0.36434718    -0.01700
C1552       C  0.47614971  0.62923559  0.36419327    -0.09200
C1553       C  0.49096471  0.67780031  0.31673392     0.65100
H1554       H  0.44207985  0.67292959  0.32132481     0.10500
C1555       C  0.43688380  0.61244620  0.38060555     0.63500
H1556       H  0.48590760  0.61687281  0.37584316     0.07900
F1557       F  0.57526286  0.63586922  0.29241466    -0.19600
F1558       F  0.54844816  0.60588768  0.29498624    -0.15800
F1559       F  0.58270519  0.60327972  0.31611746    -0.19300
F1560       F  0.50526870  0.65179399  0.40309474    -0.22700
F1561       F  0.50096484  0.68541593  0.38048993    -0.24200
F1562       F  0.53366950  0.68055932  0.40377988    -0.18100
F1563       F  0.42161323  0.59856060  0.36667759    -0.20600
F1564       F  0.42342531  0.62535951  0.39720849    -0.21800
F1565       F  0.45210080  0.59704732  0.39317282    -0.19000
F1566       F  0.47559700  0.69317950  0.30433942    -0.19100
F1567       F  0.50386602  0.66463697  0.29989566    -0.22900
F1568       F  0.50677885  0.69182301  0.33003821    -0.24500
C1569       C  0.64498220  0.47900033  0.37641461    -0.11300
C1570       C  0.65009300  0.49212924  0.35536596     0.11300
C1571       C  0.65569093  0.47985237  0.33366911    -0.03100
C1572       C  0.65516269  0.45449912  0.33361842    -0.05900
C1573       C  0.65010102  0.44113465  0.35465693    -0.16600
C1574       C  0.64495690  0.45356282  0.37656103     0.02300
C1575       C  0.65039426  0.51884182  0.35666460     0.12200
C1576       C  0.66267596  0.49349600  0.31081429     0.62900
H1577       H  0.65944854  0.44484745  0.31713626     0.12300
C1578       C  0.63898538  0.44028773  0.39987047     0.55000
H1579       H  0.64125640  0.48896648  0.39285302     0.08100
C1580       C  0.62925291  0.53278381  0.35375354    -0.05700
C1581       C  0.63141406  0.55806990  0.35262302    -0.06500
C1582       C  0.65397330  0.56976648  0.35437153    -0.16100
C1583       C  0.67509812  0.55550017  0.35854954    -0.01700
C1584       C  0.67266991  0.53023976  0.35989025    -0.09200
C1585       C  0.60459229  0.52090322  0.35178443     0.65100
H1586       H  0.61533226  0.56889504  0.35003199     0.10500
C1587       C  0.70030741  0.56626910  0.36082268     0.63500
H1588       H  0.68837813  0.51889019  0.36263524     0.07900
F1589       F  0.62075222  0.42374371  0.39570624    -0.19600
F1590       F  0.63119075  0.45590425  0.41778734    -0.15800
F1591       F  0.65926415  0.42844788  0.40841852    -0.19300
F1592       F  0.68377231  0.50626619  0.31471131    -0.22700
F1593       F  0.64456634  0.50945539  0.30441180    -0.24200
F1594       F  0.66651284  0.47806545  0.29150817    -0.18100
F1595       F  0.70131152  0.58144013  0.38065862    -0.20600
F1596       F  0.70607463  0.57894605  0.34002224    -0.21800
F1597       F  0.71783223  0.54868938  0.36399073    -0.19000
F1598       F  0.58639194  0.53770471  0.34830776    -0.19100
F1599       F  0.59964851  0.50832290  0.37282395    -0.22900
F1600       F  0.60419813  0.50502294  0.33251500    -0.24500
C1601       C  0.48148521  0.83683658  0.15286713    -0.11300
C1602       C  0.49292114  0.85689314  0.14257100     0.11300
C1603       C  0.47891485  0.87578241  0.13250693    -0.03100
C1604       C  0.45355973  0.87441908  0.13415589    -0.05900
C1605       C  0.44200312  0.85437999  0.14461560    -0.16600
C1606       C  0.45619072  0.83513307  0.15413459     0.02300
C1607       C  0.51971757  0.85728722  0.14243542     0.12200
C1608       C  0.49076323  0.89695118  0.11967439     0.62900
H1609       H  0.44250184  0.88877953  0.12678212     0.12300
C1610       C  0.44496375  0.81329138  0.16649405     0.55000
H1611       H  0.49271917  0.82248883  0.16003798     0.08100
C1612       C  0.53320050  0.86453204  0.16293094    -0.05700
C1613       C  0.55855488  0.86391919  0.16165168    -0.06500
C1614       C  0.57064801  0.85552959  0.14097425    -0.16100
C1615       C  0.55710371  0.84817015  0.12051594    -0.01700
C1616       C  0.53172810  0.84917132  0.12166621    -0.09200
C1617       C  0.52086127  0.87219944  0.18624351     0.65100
H1618       H  0.56921160  0.86922700  0.17719505     0.10500
C1619       C  0.56929504  0.83982257  0.09742603     0.63500
H1620       H  0.52094562  0.84333349  0.10640709     0.07900
F1621       F  0.46223950  0.79818008  0.17647125    -0.19600
F1622       F  0.43181222  0.79990913  0.15002567    -0.15800
F1623       F  0.43005329  0.82086180  0.18498491    -0.19300
F1624       F  0.50302168  0.88872547  0.09951985    -0.22700
F1625       F  0.50689925  0.90831484  0.13496782    -0.24200
F1626       F  0.47396505  0.91388106  0.11212034    -0.18100
F1627       F  0.58079384  0.81801045  0.10139216    -0.20600
F1628       F  0.58599473  0.85688186  0.09002228    -0.21800
F1629       F  0.55286455  0.83664166  0.07882734    -0.19000
F1630       F  0.53730432  0.88020426  0.20331245    -0.19100
F1631       F  0.50847928  0.85280721  0.19599744    -0.22900
F1632       F  0.50476947  0.89076314  0.18174833    -0.24500
C1633       C  0.63359623  0.03062129  0.11959598    -0.11300
C1634       C  0.64270258  0.01569926  0.13793973     0.11300
C1635       C  0.65255217  0.02602554  0.15916331    -0.03100
C1636       C  0.65208863  0.05125480  0.16170251    -0.05900
C1637       C  0.64353005  0.06633364  0.14318083    -0.16600
C1638       C  0.63407430  0.05597504  0.12170278     0.02300
C1639       C  0.64275643  0.98923483  0.13421990     0.12200
C1640       C  0.66429145  0.01049264  0.17861840     0.62900
H1641       H  0.65931308  0.05950495  0.17788802     0.12300
C1642       C  0.62421087  0.07149938  0.10130074     0.55000
H1643       H  0.62652342  0.02218758  0.10341621     0.08100
C1644       C  0.62399400  0.97438263  0.14306824    -0.05700
C1645       C  0.62756514  0.94925321  0.14342709    -0.06500
C1646       C  0.64841252  0.93872039  0.13353658    -0.16100
C1647       C  0.66577125  0.95361661  0.12177128    -0.01700
C1648       C  0.66280743  0.97883051  0.12286032    -0.09200
C1649       C  0.60015046  0.98509141  0.15134725     0.65100
H1650       H  0.61400060  0.93756432  0.15135100     0.10500
C1651       C  0.68760890  0.94324242  0.10871740     0.63500
H1652       H  0.67643265  0.99075446  0.11540784     0.07900
F1653       F  0.61280118  0.05772938  0.08381337    -0.19600
F1654       F  0.64285884  0.08393246  0.09026282    -0.15800
F1655       F  0.60757036  0.08779627  0.11034830    -0.19300
F1656       F  0.68344310  0.99780665  0.16882018    -0.22700
F1657       F  0.64777005  0.99428226  0.18798091    -0.24200
F1658       F  0.67307565  0.02428056  0.19754700    -0.18100
F1659       F  0.68001958  0.92951740  0.08925706    -0.20600
F1660       F  0.70098057  0.92900067  0.12433064    -0.21800
F1661       F  0.70264560  0.96118709  0.09986133    -0.19000
F1662       F  0.58433081  0.96744265  0.15936288    -0.19100
F1663       F  0.58946577  0.99703713  0.13214895    -0.22900
F1664       F  0.60373900  0.00130081  0.16998062    -0.24500
C1665       C  0.61373906  0.77024590  0.22262682    -0.11300
C1666       C  0.63512284  0.75907401  0.23036365     0.11300
C1667       C  0.65749130  0.76577020  0.21996080    -0.03100
C1668       C  0.65782994  0.78470785  0.20303415    -0.05900
C1669       C  0.63658381  0.79657575  0.19594575    -0.16600
C1670       C  0.61402940  0.78886020  0.20526896     0.02300
C1671       C  0.63355156  0.74028497  0.24937926     0.12200
C1672       C  0.68075580  0.75261473  0.22631399     0.62900
H1673       H  0.67473633  0.79032587  0.19502173     0.12300
C1674       C  0.59040684  0.79945577  0.19617852     0.55000
H1675       H  0.59681038  0.76424536  0.23039422     0.08100
C1676       C  0.63359806  0.74631250  0.27420557    -0.05700
C1677       C  0.63337990  0.72752410  0.29131043    -0.06500
C1678       C  0.63302448  0.70309717  0.28432967    -0.16100
C1679       C  0.63197726  0.69716556  0.25934622    -0.01700
C1680       C  0.63216232  0.71604446  0.24227422    -0.09200
C1681       C  0.63393364  0.77248749  0.28251336     0.65100
H1682       H  0.63399905  0.73182070  0.31039391     0.10500
C1683       C  0.63037502  0.67120898  0.25056583     0.63500
H1684       H  0.63174403  0.71205538  0.22311382     0.07900
F1685       F  0.58879153  0.82351087  0.20265848    -0.19600
F1686       F  0.57059971  0.78750155  0.20571167    -0.15800
F1687       F  0.58930773  0.79752405  0.17126181    -0.19300
F1688       F  0.67902882  0.72870173  0.21932497    -0.22700
F1689       F  0.68486255  0.75359071  0.25094192    -0.24200
F1690       F  0.70055734  0.76264309  0.21475549    -0.18100
F1691       F  0.62525633  0.66998644  0.22609131    -0.20600
F1692       F  0.61217645  0.65917303  0.26277352    -0.21800
F1693       F  0.65214401  0.65957975  0.25444744    -0.19000
F1694       F  0.63421123  0.77434162  0.30747415    -0.19100
F1695       F  0.61357198  0.78426267  0.27411343    -0.22900
F1696       F  0.65421873  0.78406804  0.27367049    -0.24500
C1697       C  0.86020388  0.52570966  0.12193295    -0.11300
C1698       C  0.85973259  0.51363987  0.14425907     0.11300
C1699       C  0.86016615  0.52706914  0.16603865    -0.03100
C1700       C  0.85989025  0.55243103  0.16463731    -0.05900
C1701       C  0.85907800  0.56445859  0.14232332    -0.16600
C1702       C  0.85967134  0.55108864  0.12057888     0.02300
C1703       C  0.85843683  0.48687968  0.14422829     0.12200
C1704       C  0.86078828  0.51467042  0.19057219     0.62900
H1705       H  0.85978450  0.56314741  0.18102081     0.12300
C1706       C  0.86007935  0.56365942  0.09619832     0.55000
H1707       H  0.86044845  0.51499919  0.10554538     0.08100
C1708       C  0.83626606  0.47453697  0.14100485    -0.05700
C1709       C  0.83625920  0.44915162  0.14171314    -0.06500
C1710       C  0.85753407  0.43599143  0.14570920    -0.16100
C1711       C  0.87981338  0.44829796  0.14821630    -0.01700
C1712       C  0.87987634  0.47371926  0.14725810    -0.09200
C1713       C  0.81272528  0.48812341  0.13706423     0.65100
H1714       H  0.81947499  0.43930051  0.13964568     0.10500
C1715       C  0.90339064  0.43463907  0.15123013     0.63500
H1716       H  0.89665082  0.48361588  0.14914048     0.07900
F1717       F  0.83888737  0.57643384  0.09288813    -0.19600
F1718       F  0.86234704  0.54737714  0.07735186    -0.15800
F1719       F  0.87943241  0.57943302  0.09520597    -0.19300
F1720       F  0.88178386  0.50133788  0.19275369    -0.22700
F1721       F  0.84117024  0.49941842  0.19303155    -0.24200
F1722       F  0.86012681  0.53115622  0.20937661    -0.18100
F1723       F  0.92311503  0.45002074  0.15121443    -0.20600
F1724       F  0.90618384  0.41846546  0.13238307    -0.21800
F1725       F  0.90332481  0.42218552  0.17290987    -0.19000
F1726       F  0.79322884  0.47258445  0.13507972    -0.19100
F1727       F  0.81405112  0.50153011  0.11600619    -0.22900
F1728       F  0.80840042  0.50348201  0.15627385    -0.24500
C1729       C  0.97609398  0.63851958  0.11659261    -0.11300
C1730       C  0.98931626  0.64454374  0.13738047     0.11300
C1731       C  0.97697289  0.65118400  0.15877648    -0.03100
C1732       C  0.95162798  0.65181329  0.15853792    -0.05900
C1733       C  0.93821693  0.64624865  0.13768591    -0.16600
C1734       C  0.95059675  0.63898343  0.11638626     0.02300
C1735       C  0.01609884  0.64581571  0.13593218     0.12200
C1736       C  0.99053365  0.65795987  0.18171722     0.62900
H1737       H  0.94203243  0.65734187  0.17466878     0.12300
C1738       C  0.93713468  0.63115839  0.09378522     0.55000
H1739       H  0.98598460  0.63379976  0.10038170     0.08100
C1740       C  0.03112144  0.62553735  0.13969909    -0.05700
C1741       C  0.05624926  0.62914324  0.14178344    -0.06500
C1742       C  0.06680898  0.65225080  0.13956111    -0.16100
C1743       C  0.05153926  0.67227707  0.13354448    -0.01700
C1744       C  0.02646715  0.66847397  0.13194333    -0.09200
C1745       C  0.02056312  0.60027424  0.14131676     0.65100
H1746       H  0.06782673  0.61377868  0.14536910     0.10500
C1747       C  0.06098555  0.69777287  0.12914009     0.63500
H1748       H  0.01438875  0.68346846  0.12836182     0.07900
F1749       F  0.92026390  0.61367350  0.09966974    -0.19600
F1750       F  0.95256646  0.62146404  0.07664872    -0.15800
F1751       F  0.92559601  0.65077450  0.08345742    -0.19300
F1752       F  0.00416597  0.67850923  0.17778090    -0.22700
F1753       F  0.00564789  0.63928688  0.18854945    -0.24200
F1754       F  0.97499353  0.66257854  0.20077848    -0.18100
F1755       F  0.04271637  0.71372942  0.12297125    -0.20600
F1756       F  0.07734677  0.69765199  0.11022539    -0.21800
F1757       F  0.07186019  0.70653009  0.14987940    -0.19000
F1758       F  0.03824732  0.58298039  0.14503367    -0.19100
F1759       F  0.00877744  0.59482936  0.11996711    -0.22900
F1760       F  0.00427733  0.59889756  0.16020938    -0.24500
C1761       C  0.75178221  0.64253686  0.27563205    -0.11300
C1762       C  0.74553450  0.62849506  0.25554988     0.11300
C1763       C  0.72355214  0.61558808  0.25546159    -0.03100
C1764       C  0.70783864  0.61828276  0.27520171    -0.05900
C1765       C  0.71323277  0.63349380  0.29495695    -0.16600
C1766       C  0.73601245  0.64555434  0.29538300     0.02300
C1767       C  0.76222146  0.62839896  0.23457705     0.12200
C1768       C  0.71648303  0.59943006  0.23439577     0.62900
H1769       H  0.69084139  0.60864953  0.27500381     0.12300
C1770       C  0.74383364  0.66190665  0.31601635     0.55000
H1771       H  0.76906138  0.65170720  0.27529587     0.08100
C1772       C  0.76348829  0.64820030  0.21841150    -0.05700
C1773       C  0.78094932  0.64780354  0.20000865    -0.06500
C1774       C  0.79651188  0.62802962  0.19681219    -0.16100
C1775       C  0.79421665  0.60756788  0.21215616    -0.01700
C1776       C  0.77748567  0.60846115  0.23129744    -0.09200
C1777       C  0.74669745  0.66981395  0.22074641     0.65100
H1778       H  0.78313479  0.66341290  0.18848143     0.10500
C1779       C  0.80871045  0.58463105  0.20804752     0.63500
H1780       H  0.77625041  0.59360486  0.24398140     0.07900
F1781       F  0.72800608  0.68110058  0.31800362    -0.19600
F1782       F  0.76669947  0.67139070  0.31239230    -0.15800
F1783       F  0.74431954  0.64897169  0.33743221    -0.19300
F1784       F  0.73297702  0.58084596  0.23202829    -0.22700
F1785       F  0.71599713  0.61272368  0.21322040    -0.24200
F1786       F  0.69389125  0.58919145  0.23762841    -0.18100
F1787       F  0.80019325  0.56565267  0.22199258    -0.20600
F1788       F  0.83262561  0.58846802  0.21406157    -0.21800
F1789       F  0.80711195  0.57778448  0.18403990    -0.19000
F1790       F  0.74888831  0.68544375  0.20129209    -0.19100
F1791       F  0.75206366  0.68250449  0.24156459    -0.22900
F1792       F  0.72294390  0.66215285  0.22173429    -0.24500
C1793       C  0.75949680  0.72363367  0.12060205    -0.11300
C1794       C  0.76832686  0.74700693  0.11683779     0.11300
C1795       C  0.79337895  0.75076812  0.11374761    -0.03100
C1796       C  0.80897440  0.73077472  0.11547666    -0.05900
C1797       C  0.80028491  0.70722384  0.11972092    -0.16600
C1798       C  0.77488355  0.70344414  0.12140340     0.02300
C1799       C  0.75081265  0.76723556  0.11776248     0.12200
C1800       C  0.80361899  0.77582907  0.10915528     0.62900
H1801       H  0.82827561  0.73350415  0.11379750     0.12300
C1802       C  0.76373385  0.67858402  0.12461882     0.55000
H1803       H  0.74021703  0.72143581  0.12312658     0.08100
C1804       C  0.73459008  0.77213642  0.09860138    -0.05700
C1805       C  0.71732944  0.79048387  0.10171411    -0.06500
C1806       C  0.71604133  0.80412293  0.12307567    -0.16100
C1807       C  0.73272414  0.79952659  0.14204596    -0.01700
C1808       C  0.74959710  0.78078084  0.13911274    -0.09200
C1809       C  0.73549266  0.75810085  0.07500890     0.65100
H1810       H  0.70461512  0.79436149  0.08735863     0.10500
C1811       C  0.73267696  0.81398587  0.16538502     0.63500
H1812       H  0.76205562  0.77640224  0.15357796     0.07900
F1813       F  0.76872571  0.66440715  0.10469193    -0.19600
F1814       F  0.73886407  0.67962197  0.12710038    -0.15800
F1815       F  0.77286507  0.66781819  0.14512252    -0.19300
F1816       F  0.80124139  0.78979077  0.12971554    -0.22700
F1817       F  0.79141297  0.78685121  0.09032301    -0.24200
F1818       F  0.82785615  0.77496203  0.10306098    -0.18100
F1819       F  0.74848841  0.80454009  0.18233864    -0.20600
F1820       F  0.70983173  0.81402178  0.17547334    -0.21800
F1821       F  0.73972888  0.83745179  0.16058135    -0.19000
F1822       F  0.71931710  0.76711313  0.05816221    -0.19100
F1823       F  0.72978070  0.73414185  0.07910256    -0.22900
F1824       F  0.75839045  0.75948336  0.06514580    -0.24500
C1825       C  0.97983026  0.88162599  0.35433233    -0.11300
C1826       C  0.99364438  0.86045829  0.35342496     0.11300
C1827       C  0.98210945  0.83781242  0.35105010    -0.03100
C1828       C  0.95694366  0.83728026  0.34807889    -0.05900
C1829       C  0.94297130  0.85854924  0.34757780    -0.16600
C1830       C  0.95457316  0.88120963  0.35133506     0.02300
C1831       C  0.02032166  0.86255635  0.35340714     0.12200
C1832       C  0.99637933  0.81433042  0.35149258     0.62900
H1833       H  0.94804711  0.82004574  0.34561672     0.12300
C1834       C  0.94073887  0.90491981  0.35217148     0.55000
H1835       H  0.98922122  0.89864239  0.35659715     0.08100
C1836       C  0.03317947  0.86782341  0.33190509    -0.05700
C1837       C  0.05851063  0.86705949  0.33242949    -0.06500
C1838       C  0.07112797  0.86117301  0.35361156    -0.16100
C1839       C  0.05832750  0.85724605  0.37544256    -0.01700
C1840       C  0.03292306  0.85812581  0.37495927    -0.09200
C1841       C  0.02017398  0.87385603  0.30845499     0.65100
H1842       H  0.06872206  0.87034914  0.31604603     0.10500
C1843       C  0.07141902  0.85269738  0.39912630     0.63500
H1844       H  0.02262429  0.85473586  0.39126142     0.07900
F1845       F  0.93190294  0.91041433  0.32942863    -0.19600
F1846       F  0.95524672  0.92393374  0.35948431    -0.15800
F1847       F  0.92181003  0.90317754  0.36839431    -0.19300
F1848       F  0.00750274  0.81167570  0.37371575    -0.22700
F1849       F  0.01377940  0.81450850  0.33355541    -0.24200
F1850       F  0.98173312  0.79438626  0.34783663    -0.18100
F1851       F  0.05561799  0.85182951  0.41851531    -0.20600
F1852       F  0.08777593  0.87112101  0.40330372    -0.21800
F1853       F  0.08355016  0.83089870  0.39814554    -0.19000
F1854       F  0.03614210  0.87727432  0.28948776    -0.19100
F1855       F  0.00703339  0.89490152  0.31127635    -0.22900
F1856       F  0.00468545  0.85527940  0.30223398    -0.24500
C1857       C  0.85608933  0.97910209  0.33174225    -0.11300
C1858       C  0.85852082  0.98813983  0.35521619     0.11300
C1859       C  0.86150173  0.97195607  0.37479305    -0.03100
C1860       C  0.86206519  0.94695501  0.37004503    -0.05900
C1861       C  0.85987657  0.93770537  0.34642798    -0.16600
C1862       C  0.85719575  0.95421705  0.32675664     0.02300
C1863       C  0.85761482  0.01478414  0.35844345     0.12200
C1864       C  0.86383357  0.98108017  0.40056993     0.62900
H1865       H  0.86407081  0.93435966  0.38492074     0.12300
C1866       C  0.85505491  0.94605713  0.30058878     0.55000
H1867       H  0.85343504  0.99197697  0.31720645     0.08100
C1868       C  0.87708333  0.02986308  0.35148644    -0.05700
C1869       C  0.87404684  0.05503940  0.35270057    -0.06500
C1870       C  0.85253785  0.06550894  0.36106698    -0.16100
C1871       C  0.83344209  0.05039219  0.36909505    -0.01700
C1872       C  0.83620796  0.02516678  0.36715505    -0.09200
C1873       C  0.90084057  0.01945112  0.34249878     0.65100
H1874       H  0.88836926  0.06686548  0.34657667     0.10500
C1875       C  0.81000081  0.06073122  0.37889919     0.63500
H1876       H  0.82146784  0.01325281  0.37203628     0.07900
F1877       F  0.85090490  0.96519090  0.28496350    -0.19600
F1878       F  0.83599762  0.93018473  0.29822054    -0.15800
F1879       F  0.87624117  0.93494717  0.29340517    -0.19300
F1880       F  0.84238836  0.99164298  0.40775216    -0.22700
F1881       F  0.88216524  0.99798395  0.40201751    -0.24200
F1882       F  0.86908210  0.96257048  0.41658990    -0.18100
F1883       F  0.79974708  0.07612140  0.36205936    -0.20600
F1884       F  0.81457077  0.07330414  0.40000320    -0.21800
F1885       F  0.79334623  0.04281179  0.38415252    -0.19000
F1886       F  0.91819623  0.03720534  0.33943317    -0.19100
F1887       F  0.89746076  0.00816762  0.32048581    -0.22900
F1888       F  0.90962864  0.00284570  0.35899704    -0.24500
C1889       C  0.78075000  0.75984613  0.35809199    -0.11300
C1890       C  0.75754927  0.76959521  0.36046538     0.11300
C1891       C  0.75454408  0.79483244  0.36269878    -0.03100
C1892       C  0.77507466  0.80970868  0.36111862    -0.05900
C1893       C  0.79846454  0.80014666  0.35804612    -0.16600
C1894       C  0.80140238  0.77462370  0.35681407     0.02300
C1895       C  0.73683903  0.75262290  0.36078162     0.12200
C1896       C  0.72984624  0.80591207  0.36722462     0.62900
H1897       H  0.77298033  0.82909845  0.36257557     0.12300
C1898       C  0.82584308  0.76285289  0.35303210     0.55000
H1899       H  0.78242644  0.74038671  0.35691671     0.08100
C1900       C  0.72622031  0.74398778  0.33915878    -0.05700
C1901       C  0.70744173  0.72697623  0.34082086    -0.06500
C1902       C  0.70025742  0.71730144  0.36314921    -0.16100
C1903       C  0.71078239  0.72601716  0.38479050    -0.01700
C1904       C  0.72888585  0.74380385  0.38319905    -0.09200
C1905       C  0.73548282  0.75176478  0.31446015     0.65100
H1906       H  0.69907158  0.72006233  0.32453756     0.10500
C1907       C  0.70270108  0.71686439  0.40939125     0.63500
H1908       H  0.73750483  0.75052463  0.39942665     0.07900
F1909       F  0.83615616  0.77192153  0.33217650    -0.19600
F1910       F  0.82407311  0.73801865  0.35051878    -0.15800
F1911       F  0.84066870  0.76737809  0.37262926    -0.19300
F1912       F  0.72088224  0.79766177  0.38905478    -0.22700
F1913       F  0.71401227  0.79955958  0.34900216    -0.24200
F1914       F  0.73085672  0.83089411  0.36816635    -0.18100
F1915       F  0.71304620  0.72994296  0.42803602    -0.20600
F1916       F  0.70930448  0.69293916  0.41219406    -0.21800
F1917       F  0.67787652  0.71886847  0.41141223    -0.19000
F1918       F  0.72191943  0.74193162  0.29587959    -0.19100
F1919       F  0.75909624  0.74416748  0.31162051    -0.22900
F1920       F  0.73462660  0.77661739  0.31224891    -0.24500
C1921       C  0.78112930  0.85815804  0.24944697    -0.11300
C1922       C  0.76865861  0.88010968  0.24791325     0.11300
C1923       C  0.77443054  0.89918719  0.26388314    -0.03100
C1924       C  0.79286034  0.89552312  0.28097901    -0.05900
C1925       C  0.80619348  0.87391904  0.28185997    -0.16600
C1926       C  0.80010662  0.85476024  0.26594735     0.02300
C1927       C  0.74845551  0.88169722  0.23047085     0.12200
C1928       C  0.76132581  0.92330225  0.26275041     0.62900
H1929       H  0.79699862  0.90962592  0.29382109     0.12300
C1930       C  0.81326754  0.83073701  0.26643199     0.55000
H1931       H  0.77586944  0.84367426  0.23738363     0.08100
C1932       C  0.75229367  0.88480877  0.20540068    -0.05700
C1933       C  0.73224333  0.88394262  0.18985690    -0.06500
C1934       C  0.70870479  0.87959858  0.19851338    -0.16100
C1935       C  0.70488846  0.87763094  0.22390828    -0.01700
C1936       C  0.72503725  0.87827158  0.23933318    -0.09200
C1937       C  0.77748723  0.88841542  0.19506492     0.65100
H1938       H  0.73505154  0.88573100  0.17056141     0.10500
C1939       C  0.67989533  0.87526776  0.23505424     0.63500
H1940       H  0.72275677  0.87562538  0.25862020     0.07900
F1941       F  0.83644625  0.83409790  0.25800178    -0.19600
F1942       F  0.80223226  0.81366041  0.25186908    -0.15800
F1943       F  0.81396581  0.82165645  0.28974898    -0.19300
F1944       F  0.73712198  0.92016503  0.26794950    -0.22700
F1945       F  0.76355437  0.93313199  0.23986942    -0.24200
F1946       F  0.77064248  0.93973731  0.27913926    -0.18100
F1947       F  0.68046496  0.87811248  0.25992782    -0.20600
F1948       F  0.67047280  0.85263918  0.23022732    -0.21800
F1949       F  0.66479431  0.89292116  0.22578464    -0.19000
F1950       F  0.77692539  0.89304903  0.17046016    -0.19100
F1951       F  0.79117895  0.86785755  0.19873748    -0.22900
F1952       F  0.78864571  0.90774117  0.20624840    -0.24500
C1953       C  0.89179561  0.75486799  0.27330504    -0.11300
C1954       C  0.88579240  0.76086446  0.24942964     0.11300
C1955       C  0.88126821  0.78525168  0.24314635    -0.03100
C1956       C  0.88168357  0.80276980  0.26153814    -0.05900
C1957       C  0.88536979  0.79640436  0.28583367    -0.16600
C1958       C  0.89236559  0.77243544  0.29162883     0.02300
C1959       C  0.88290924  0.74098188  0.23176505     0.12200
C1960       C  0.87515580  0.79255401  0.21735035     0.62900
H1961       H  0.87814629  0.82150330  0.25719823     0.12300
C1962       C  0.90210112  0.76579565  0.31646005     0.55000
H1963       H  0.89568275  0.73613967  0.27755458     0.08100
C1964       C  0.90277381  0.73049614  0.21957530    -0.05700
C1965       C  0.89826248  0.71216371  0.20256303    -0.06500
C1966       C  0.87483119  0.70336125  0.19847162    -0.16100
C1967       C  0.85508504  0.71319479  0.21146339    -0.01700
C1968       C  0.85953414  0.73206659  0.22785048    -0.09200
C1969       C  0.92855316  0.73823464  0.22494152     0.65100
H1970       H  0.91311138  0.70410771  0.19266253     0.10500
C1971       C  0.82942064  0.70422267  0.20769153     0.63500
H1972       H  0.84475481  0.74007498  0.23789016     0.07900
F1973       F  0.91203492  0.74283618  0.31666132    -0.19600
F1974       F  0.88397709  0.76635525  0.33355942    -0.15800
F1975       F  0.92002500  0.78196101  0.32293485    -0.19300
F1976       F  0.85351764  0.78214402  0.21053106    -0.22700
F1977       F  0.89309566  0.78494514  0.20174805    -0.24200
F1978       F  0.87292075  0.81736111  0.21494408    -0.18100
F1979       F  0.82755302  0.68050221  0.21532386    -0.20600
F1980       F  0.82337892  0.70568896  0.18346725    -0.21800
F1981       F  0.81280687  0.71773372  0.22061525    -0.19000
F1982       F  0.94507123  0.72620168  0.21052263    -0.19100
F1983       F  0.93403758  0.73318933  0.24880266    -0.22900
F1984       F  0.93124831  0.76273981  0.22097036    -0.24500
C1985       C  0.15467068  0.38153750  0.97285534    -0.11300
C1986       C  0.14530884  0.36199204  0.98584487     0.11300
C1987       C  0.13471674  0.34239823  0.97348066    -0.03100
C1988       C  0.13631869  0.34178995  0.94815829    -0.05900
C1989       C  0.14745237  0.36047790  0.93485225    -0.16600
C1990       C  0.15562586  0.38148670  0.94743274     0.02300
C1991       C  0.14715352  0.36246642  0.01250258     0.12200
C1992       C  0.12173962  0.32232454  0.98704149     0.62900
H1993       H  0.12904128  0.32635655  0.93860490     0.12300
C1994       C  0.16540789  0.40381723  0.93465822     0.55000
H1995       H  0.16177434  0.39668910  0.98301335     0.08100
C1996       C  0.16801895  0.35396064  0.02458107    -0.05700
C1997       C  0.16825399  0.35412157  0.04995093    -0.06500
C1998       C  0.14851652  0.36268767  0.06335830    -0.16100
C1999       C  0.12815011  0.37236733  0.05120089    -0.01700
C2000       C  0.12785222  0.37204947  0.02577227    -0.09200
C2001       C  0.18993494  0.34486683  0.01073315     0.65100
H2002       H  0.18378525  0.34712315  0.05959978     0.10500
C2003       C  0.10732093  0.38377473  0.06488821     0.63500
H2004       H  0.11243387  0.37906678  0.01596488     0.07900
F2005       F  0.18662253  0.39826847  0.92268472    -0.19600
F2006       F  0.17042792  0.42234896  0.95069874    -0.15800
F2007       F  0.14844819  0.41241723  0.91840328    -0.19300
F2008       F  0.10278383  0.33196827  0.00013276    -0.22700
F2009       F  0.13744727  0.31088484  0.00274066    -0.24200
F2010       F  0.11238695  0.30511013  0.97149929    -0.18100
F2011       F  0.09106130  0.39491241  0.04945194    -0.20600
F2012       F  0.11613247  0.40109877  0.08058896    -0.21800
F2013       F  0.09497691  0.36631914  0.07782835    -0.19000
F2014       F  0.20818363  0.33730653  0.02610422    -0.19100
F2015       F  0.19903653  0.36317086  0.99634774    -0.22900
F2016       F  0.18357848  0.32555519  0.99625412    -0.24500
C2017       C  0.37641877  0.16225940  0.97446194    -0.11300
C2018       C  0.36330926  0.14356576  0.98546575     0.11300
C2019       C  0.35034515  0.12697318  0.97101821    -0.03100
C2020       C  0.35160467  0.12929324  0.94574550    -0.05900
C2021       C  0.36404638  0.14847362  0.93457763    -0.16600
C2022       C  0.37660065  0.16543642  0.94919004     0.02300
C2023       C  0.36045466  0.14432193  0.01209972     0.12200
C2024       C  0.33404369  0.10787659  0.98221714     0.62900
H2025       H  0.34178196  0.11671981  0.93445004     0.12300
C2026       C  0.38858629  0.18774864  0.93853794     0.55000
H2027       H  0.38551765  0.17512645  0.98605306     0.08100
C2028       C  0.37735378  0.13383244  0.02823099    -0.05700
C2029       C  0.37333374  0.13614599  0.05329680    -0.06500
C2030       C  0.35350260  0.14911962  0.06229303    -0.16100
C2031       C  0.33695965  0.15996150  0.04613840    -0.01700
C2032       C  0.34075047  0.15735520  0.02119537    -0.09200
C2033       C  0.39968874  0.12082496  0.01901198     0.65100
H2034       H  0.38588365  0.12825703  0.06610563     0.10500
C2035       C  0.31540167  0.17416092  0.05532169     0.63500
H2036       H  0.32840529  0.16565977  0.00844343     0.07900
F2037       F  0.40785664  0.18104141  0.92413772    -0.19600
F2038       F  0.39727096  0.20306062  0.95630928    -0.15800
F2039       F  0.37200387  0.20057601  0.92488542    -0.19300
F2040       F  0.31547972  0.11895027  0.99471478    -0.22700
F2041       F  0.34699204  0.09352780  0.99801892    -0.24200
F2042       F  0.32386150  0.09299921  0.96487926    -0.18100
F2043       F  0.30109804  0.18259530  0.03659034    -0.20600
F2044       F  0.32329962  0.19383952  0.06849554    -0.21800
F2045       F  0.30132756  0.15955570  0.06994460    -0.19000
F2046       F  0.41388088  0.11229607  0.03779072    -0.19100
F2047       F  0.41352666  0.13647555  0.00529412    -0.22900
F2048       F  0.39310604  0.10135859  0.00486804    -0.24500
C2049       C  0.25872703  0.21784344  0.88501954    -0.11300
C2050       C  0.26207144  0.23993920  0.87304538     0.11300
C2051       C  0.28435382  0.24486172  0.86144602    -0.03100
C2052       C  0.30226082  0.22677780  0.86119961    -0.05900
C2053       C  0.29847917  0.20420628  0.87218006    -0.16600
C2054       C  0.27666087  0.19979209  0.88485976     0.02300
C2055       C  0.24196392  0.25773622  0.87309647     0.12200
C2056       C  0.28905742  0.26906449  0.84929410     0.62900
H2057       H  0.31920756  0.22991311  0.85192754     0.12300
C2058       C  0.27269443  0.17648415  0.89882890     0.55000
H2059       H  0.24176638  0.21478013  0.89428166     0.08100
C2060       C  0.22351866  0.25722566  0.85543359    -0.05700
C2061       C  0.20618029  0.27577320  0.85538163    -0.06500
C2062       C  0.20605802  0.29416022  0.87296394    -0.16100
C2063       C  0.22355650  0.29351813  0.89179292    -0.01700
C2064       C  0.24143590  0.27537216  0.89127025    -0.09200
C2065       C  0.22176722  0.23679556  0.83716755     0.65100
H2066       H  0.19245704  0.27600188  0.84142795     0.10500
C2067       C  0.22308833  0.31122362  0.91277219     0.63500
H2068       H  0.25538992  0.27487337  0.90499458     0.07900
F2069       F  0.27111434  0.15722158  0.88304513    -0.19600
F2070       F  0.25162517  0.17716055  0.91229330    -0.15800
F2071       F  0.29175764  0.17273131  0.91457101    -0.19300
F2072       F  0.28696032  0.28746917  0.86603848    -0.22700
F2073       F  0.27252942  0.27284999  0.83095017    -0.24200
F2074       F  0.31198855  0.27022379  0.83937747    -0.18100
F2075       F  0.23935878  0.30485823  0.93069956    -0.20600
F2076       F  0.20029130  0.31162823  0.92303707    -0.21800
F2077       F  0.22909470  0.33411485  0.90474435    -0.19000
F2078       F  0.20294104  0.24025600  0.82104334    -0.19100
F2079       F  0.21780857  0.21524536  0.84920774    -0.22900
F2080       F  0.24290137  0.23500516  0.82400785    -0.24500
C2081       C  0.36341290  0.37560743  0.52391079    -0.11300
C2082       C  0.36140393  0.35397413  0.51099845     0.11300
C2083       C  0.36017168  0.33170854  0.52346121    -0.03100
C2084       C  0.35883766  0.33205152  0.54881034    -0.05900
C2085       C  0.35920576  0.35383748  0.56191750    -0.16600
C2086       C  0.36254532  0.37602271  0.54931756     0.02300
C2087       C  0.35969420  0.35530232  0.48435746     0.12200
C2088       C  0.36017753  0.30776992  0.50999735     0.62900
H2089       H  0.35688889  0.31518786  0.55855572     0.12300
C2090       C  0.36557356  0.40001851  0.56231959     0.55000
H2091       H  0.36498989  0.39230168  0.51378653     0.08100
C2092       C  0.33728972  0.35921255  0.47264880    -0.05700
C2093       C  0.33671055  0.35941434  0.44726361    -0.06500
C2094       C  0.35771863  0.35588492  0.43359422    -0.16100
C2095       C  0.38022134  0.35269404  0.44529632    -0.01700
C2096       C  0.38084255  0.35260979  0.47070606    -0.09200
C2097       C  0.31420195  0.36331794  0.48694730     0.65100
H2098       H  0.31974653  0.36196025  0.43782046     0.10500
C2099       C  0.40340031  0.34975634  0.43096740     0.63500
H2100       H  0.39778203  0.35006281  0.48018021     0.07900
F2101       F  0.34385146  0.40709741  0.57240621    -0.19600
F2102       F  0.37302404  0.41814533  0.54672495    -0.15800
F2103       F  0.38284765  0.39782612  0.58026781    -0.19300
F2104       F  0.38135666  0.30550899  0.49695452    -0.22700
F2105       F  0.34080917  0.30668245  0.49427108    -0.24200
F2106       F  0.35859709  0.28826272  0.52562426    -0.18100
F2107       F  0.42350579  0.34911293  0.44583416    -0.20600
F2108       F  0.40603051  0.36897252  0.41515360    -0.21800
F2109       F  0.40268370  0.32842160  0.41802268    -0.19000
F2110       F  0.29424048  0.36528398  0.47200008    -0.19100
F2111       F  0.31615682  0.38445092  0.50009717    -0.22900
F2112       F  0.31019878  0.34429348  0.50266904    -0.24500
C2113       C  0.35762960  0.28226413  0.74356872    -0.11300
C2114       C  0.37647882  0.26548517  0.74209423     0.11300
C2115       C  0.39353160  0.26717393  0.72317234    -0.03100
C2116       C  0.39119163  0.28606566  0.70633815    -0.05900
C2117       C  0.37249712  0.30326004  0.70784029    -0.16600
C2118       C  0.35548009  0.30151535  0.72709627     0.02300
C2119       C  0.37711964  0.24580991  0.76027569     0.12200
C2120       C  0.41387343  0.24892162  0.72058706     0.62900
H2121       H  0.40403322  0.28739784  0.69164236     0.12300
C2122       C  0.33499064  0.31949434  0.73043237     0.55000
H2123       H  0.34459963  0.28013526  0.75804646     0.08100
C2124       C  0.38534155  0.24966991  0.78418849    -0.05700
C2125       C  0.38383475  0.23051874  0.80086108    -0.06500
C2126       C  0.37413686  0.20797958  0.79441297    -0.16100
C2127       C  0.36549638  0.20433626  0.77050334    -0.01700
C2128       C  0.36733934  0.22341283  0.75379337    -0.09200
C2129       C  0.39548602  0.27393869  0.79205422     0.65100
H2130       H  0.39008949  0.23304996  0.81925212     0.10500
C2131       C  0.35266335  0.18127368  0.76306546     0.63500
H2132       H  0.36045179  0.22130581  0.73557494     0.07900
F2133       F  0.31992886  0.31320274  0.74942032    -0.19600
F2134       F  0.32105975  0.32056215  0.70970840    -0.15800
F2135       F  0.34442872  0.34206044  0.73548147    -0.19300
F2136       F  0.40440656  0.22634792  0.71567641    -0.22700
F2137       F  0.42710460  0.24777530  0.74174986    -0.24200
F2138       F  0.42951284  0.25497464  0.70199604    -0.18100
F2139       F  0.34468895  0.18218747  0.73934942    -0.20600
F2140       F  0.33271058  0.17795514  0.77769805    -0.21800
F2141       F  0.36802999  0.16170080  0.76512021    -0.19000
F2142       F  0.40339760  0.27345647  0.81579399    -0.19100
F2143       F  0.37791145  0.29157451  0.79020908    -0.22900
F2144       F  0.41482973  0.28018169  0.77753337    -0.24500
C2145       C  0.25333173  0.36427310  0.71518698    -0.11300
C2146       C  0.26124782  0.37161499  0.73803319     0.11300
C2147       C  0.28561890  0.37821786  0.74155330    -0.03100
C2148       C  0.30124727  0.37800028  0.72155561    -0.05900
C2149       C  0.29353243  0.37072538  0.69838573    -0.16600
C2150       C  0.26894583  0.36366400  0.69512050     0.02300
C2151       C  0.24357840  0.37138430  0.75811528     0.12200
C2152       C  0.29509594  0.38526355  0.76636895     0.62900
H2153       H  0.31991560  0.38313898  0.72411492     0.12300
C2154       C  0.25877936  0.35564825  0.67085884     0.55000
H2155       H  0.23464024  0.35882892  0.71333631     0.08100
C2156       C  0.22724232  0.39065051  0.76190229    -0.05700
C2157       C  0.21091408  0.38907212  0.78130515    -0.06500
C2158       C  0.21021321  0.36872565  0.79653042    -0.16100
C2159       C  0.22614068  0.34906637  0.79216138    -0.01700
C2160       C  0.24262524  0.35085815  0.77291910    -0.09200
C2161       C  0.22663143  0.41237839  0.74507363     0.65100
H2162       H  0.19831590  0.40369854  0.78459899     0.10500
C2163       C  0.22531286  0.32595620  0.80708156     0.63500
H2164       H  0.25500979  0.33615728  0.76916432     0.07900
F2165       F  0.26302235  0.37325234  0.65358865    -0.19600
F2166       F  0.23406944  0.35186634  0.67182122    -0.15800
F2167       F  0.26939422  0.33412642  0.66388398    -0.19300
F2168       F  0.29216336  0.36625781  0.78234346    -0.22700
F2169       F  0.28261194  0.40510700  0.77493913    -0.24200
F2170       F  0.31941066  0.39108076  0.76577382    -0.18100
F2171       F  0.23983253  0.30806049  0.79737555    -0.20600
F2172       F  0.20193303  0.31714528  0.80790124    -0.21800
F2173       F  0.23334320  0.33051746  0.83030821    -0.19000
F2174       F  0.21056694  0.42983336  0.75298123    -0.19100
F2175       F  0.21954775  0.40511542  0.72224246    -0.22900
F2176       F  0.24924846  0.42284533  0.74359781    -0.24500
C2177       C  0.13488095  0.12670214  0.47060621    -0.11300
C2178       C  0.14490924  0.14489253  0.48508627     0.11300
C2179       C  0.15533370  0.16553745  0.47408201    -0.03100
C2180       C  0.15466684  0.16761255  0.44871370    -0.05900
C2181       C  0.14495151  0.14927922  0.43412799    -0.16600
C2182       C  0.13481237  0.12844492  0.44516888     0.02300
C2183       C  0.14486647  0.14169253  0.51179236     0.12200
C2184       C  0.16782571  0.18485777  0.48907632     0.62900
H2185       H  0.16263907  0.18321698  0.43995550     0.12300
C2186       C  0.12353639  0.10838476  0.43024848     0.55000
H2187       H  0.12733030  0.11095430  0.47947050     0.08100
C2188       C  0.12538822  0.14955785  0.52632422    -0.05700
C2189       C  0.12808547  0.14923340  0.55163552    -0.06500
C2190       C  0.14903701  0.14010648  0.56272311    -0.16100
C2191       C  0.16754198  0.12993262  0.54805889    -0.01700
C2192       C  0.16517801  0.13124585  0.52271648    -0.09200
C2193       C  0.10185857  0.15803171  0.51505721     0.65100
H2194       H  0.11380621  0.15622564  0.56303909     0.10500
C2195       C  0.19002213  0.11842799  0.55887036     0.63500
H2196       H  0.17944598  0.12460340  0.51109474     0.07900
F2197       F  0.11206605  0.09141738  0.44464676    -0.19600
F2198       F  0.14117701  0.09659046  0.41712098    -0.15800
F2199       F  0.10659558  0.11799327  0.41456455    -0.19300
F2200       F  0.18739533  0.17487808  0.50098223    -0.22700
F2201       F  0.15201771  0.19428839  0.50594571    -0.24200
F2202       F  0.17616831  0.20372673  0.47489203    -0.18100
F2203       F  0.20619608  0.11113631  0.54122958    -0.20600
F2204       F  0.18361416  0.09820492  0.57212975    -0.21800
F2205       F  0.20171688  0.13478291  0.57370244    -0.19000
F2206       F  0.08513018  0.16472398  0.53240972    -0.19100
F2207       F  0.09196771  0.13949880  0.50154833    -0.22900
F2208       F  0.10594241  0.17767662  0.50015598    -0.24500
C2209       C  0.11864645  0.23900047  0.72282258    -0.11300
C2210       C  0.13734728  0.23940208  0.73987972     0.11300
C2211       C  0.15524174  0.22119121  0.73949852    -0.03100
C2212       C  0.15387319  0.20319436  0.72164830    -0.05900
C2213       C  0.13544924  0.20291082  0.70405256    -0.16600
C2214       C  0.11752582  0.22136177  0.70451290     0.02300
C2215       C  0.13727138  0.25889330  0.75831292     0.12200
C2216       C  0.17564076  0.22068547  0.75791222     0.62900
H2217       H  0.16754273  0.18921225  0.72119354     0.12300
C2218       C  0.09719159  0.22265434  0.68609662     0.55000
H2219       H  0.10500546  0.25298868  0.72386955     0.08100
C2220       C  0.14487250  0.28267186  0.75292413    -0.05700
C2221       C  0.14369932  0.30023509  0.77121735    -0.06500
C2222       C  0.13554200  0.29484491  0.79479468    -0.16100
C2223       C  0.12828237  0.27066180  0.80015713    -0.01700
C2224       C  0.12883323  0.25334462  0.78151752    -0.09200
C2225       C  0.15448195  0.28941683  0.72804401     0.65100
H2226       H  0.14935563  0.31849502  0.76707173     0.10500
C2227       C  0.12039758  0.26261021  0.82526082     0.63500
H2228       H  0.12279949  0.23502856  0.78489918     0.07900
F2229       F  0.08076022  0.24072022  0.69152078    -0.19600
F2230       F  0.08476388  0.20097398  0.68558676    -0.15800
F2231       F  0.10659804  0.22758187  0.66344812    -0.19300
F2232       F  0.16638355  0.21649702  0.78074258    -0.22700
F2233       F  0.18775925  0.24252496  0.75787171    -0.24200
F2234       F  0.19226246  0.20266347  0.75294388    -0.18100
F2235       F  0.11559341  0.23806829  0.82623493    -0.20600
F2236       F  0.09953179  0.27463460  0.83189859    -0.21800
F2237       F  0.13855856  0.26728390  0.84177773    -0.19000
F2238       F  0.16183388  0.31331243  0.72698096    -0.19100
F2239       F  0.13673571  0.28615463  0.71079527    -0.22900
F2240       F  0.17411341  0.27506892  0.72238508    -0.24500
C2241       C  0.25978518  0.12902040  0.77930831    -0.11300
C2242       C  0.26740938  0.12264891  0.75605824     0.11300
C2243       C  0.29216893  0.11809954  0.75163902    -0.03100
C2244       C  0.30859466  0.12031253  0.77092661    -0.05900
C2245       C  0.30107453  0.12698870  0.79428487    -0.16600
C2246       C  0.27610156  0.13119666  0.79865978     0.02300
C2247       C  0.24923990  0.12347806  0.73634389     0.12200
C2248       C  0.30120594  0.11118585  0.72663821     0.62900
H2249       H  0.32765481  0.11717898  0.76779599     0.12300
C2250       C  0.26666810  0.13965045  0.82298509     0.55000
H2251       H  0.24083237  0.13311645  0.78192195     0.08100
C2252       C  0.23140461  0.10543037  0.73332841    -0.05700
C2253       C  0.21386954  0.10857456  0.71516795    -0.06500
C2254       C  0.21389278  0.12885601  0.69978341    -0.16100
C2255       C  0.23197227  0.14687240  0.70287682    -0.01700
C2256       C  0.24902388  0.14395735  0.72147131    -0.09200
C2257       C  0.23082649  0.08305804  0.74927700     0.65100
H2258       H  0.19986000  0.09512196  0.71292234     0.10500
C2259       C  0.23296891  0.16954261  0.68738775     0.63500
H2260       H  0.26248296  0.15779778  0.72470006     0.07900
F2261       F  0.27129092  0.12247890  0.84055649    -0.19600
F2262       F  0.24197368  0.14359208  0.82267944    -0.15800
F2263       F  0.27765695  0.16120649  0.82895336    -0.19300
F2264       F  0.29776249  0.13012351  0.71069900    -0.22700
F2265       F  0.28876613  0.09117702  0.71836940    -0.24200
F2266       F  0.32558473  0.10562370  0.72677020    -0.18100
F2267       F  0.25019844  0.18575766  0.69550305    -0.20600
F2268       F  0.21085372  0.18103255  0.68799203    -0.21800
F2269       F  0.23872819  0.16355754  0.66381306    -0.19000
F2270       F  0.21340181  0.06674994  0.74179919    -0.19100
F2271       F  0.22571726  0.08949391  0.77286298    -0.22900
F2272       F  0.25296434  0.07152739  0.74857804    -0.24500
C2273       C  0.28409022  0.25251131  0.63887161    -0.11300
C2274       C  0.26404843  0.25700187  0.62415764     0.11300
C2275       C  0.26240072  0.27893284  0.61120387    -0.03100
C2276       C  0.28152493  0.29554890  0.61290347    -0.05900
C2277       C  0.30184656  0.29134897  0.62772664    -0.16600
C2278       C  0.30311733  0.26924629  0.64109413     0.02300
C2279       C  0.24412611  0.23913002  0.62426952     0.12200
C2280       C  0.24017462  0.28501632  0.59622184     0.62900
H2281       H  0.28035557  0.31234240  0.60292231     0.12300
C2282       C  0.32388768  0.26313493  0.65807759     0.55000
H2283       H  0.28440923  0.23573058  0.64898255     0.08100
C2284       C  0.24448985  0.21814796  0.60976904    -0.05700
C2285       C  0.22488848  0.20205313  0.61120096    -0.06500
C2286       C  0.20508828  0.20621366  0.62668424    -0.16100
C2287       C  0.20492412  0.22751471  0.64124770    -0.01700
C2288       C  0.22474418  0.24332162  0.63989589    -0.09200
C2289       C  0.26560907  0.21270812  0.59308432     0.65100
H2290       H  0.22503121  0.18588602  0.60018859     0.10500
C2291       C  0.18436703  0.23386204  0.65838028     0.63500
H2292       H  0.22531892  0.25942583  0.65101154     0.07900
F2293       F  0.34524448  0.26168845  0.64518156    -0.19600
F2294       F  0.32056357  0.24115498  0.66961284    -0.15800
F2295       F  0.32579194  0.28062214  0.67581178    -0.19300
F2296       F  0.22027763  0.28710905  0.61117193    -0.22700
F2297       F  0.23587668  0.26702978  0.57945412    -0.24200
F2298       F  0.24283517  0.30660099  0.58383314    -0.18100
F2299       F  0.18899694  0.25468871  0.67143366    -0.20600
F2300       F  0.18094723  0.21542419  0.67482391    -0.21800
F2301       F  0.16336733  0.23763971  0.64538012    -0.19000
F2302       F  0.26203583  0.19166545  0.58004821    -0.19100
F2303       F  0.28648856  0.21000827  0.60651175    -0.22900
F2304       F  0.26873424  0.23141468  0.57680398    -0.24500
C2305       C  0.35008020  0.52956726  0.61383389    -0.11300
C2306       C  0.35182065  0.51557872  0.63491925     0.11300
C2307       C  0.35387171  0.52712004  0.65762004    -0.03100
C2308       C  0.35281912  0.55243732  0.65856992    -0.05900
C2309       C  0.35018312  0.56672864  0.63765630    -0.16600
C2310       C  0.34934315  0.55507300  0.61466378     0.02300
C2311       C  0.35171821  0.48876355  0.63302126     0.12200
C2312       C  0.35726872  0.51272058  0.68082636     0.62900
H2313       H  0.35392363  0.56125879  0.67597216     0.12300
C2314       C  0.34812672  0.56912826  0.59102620     0.55000
H2315       H  0.34910612  0.52022382  0.59667335     0.08100
C2316       C  0.33002202  0.47535986  0.63192835    -0.05700
C2317       C  0.33119301  0.45000399  0.63384969    -0.06500
C2318       C  0.35321604  0.43768253  0.63756440    -0.16100
C2319       C  0.37507088  0.45137552  0.63783084    -0.01700
C2320       C  0.37380321  0.47662748  0.63480424    -0.09200
C2321       C  0.30572491  0.48790890  0.62939530     0.65100
H2322       H  0.31458653  0.43969994  0.63339247     0.10500
C2323       C  0.39968708  0.43996231  0.64205139     0.63500
H2324       H  0.39008946  0.48745926  0.63527265     0.07900
F2325       F  0.32599463  0.58054026  0.58899473    -0.19600
F2326       F  0.35080759  0.55421099  0.57112243    -0.15800
F2327       F  0.36645612  0.58611566  0.59024309    -0.19300
F2328       F  0.37912299  0.50067367  0.68014964    -0.22700
F2329       F  0.33881954  0.49609019  0.68344200    -0.24200
F2330       F  0.35728301  0.52740573  0.70106903    -0.18100
F2331       F  0.41826879  0.45653590  0.63963364    -0.20600
F2332       F  0.40360537  0.42174523  0.62541491    -0.21800
F2333       F  0.40083093  0.43073318  0.66528789    -0.19000
F2334       F  0.28674655  0.47161696  0.62934635    -0.19100
F2335       F  0.30501367  0.50069114  0.60791334    -0.22900
F2336       F  0.30224370  0.50371438  0.64842710    -0.24500
C2337       C  0.33596274  0.65017936  0.52036744    -0.11300
C2338       C  0.35807876  0.64171847  0.51149949     0.11300
C2339       C  0.37725299  0.63684179  0.52767248    -0.03100
C2340       C  0.37324314  0.63993404  0.55258579    -0.05900
C2341       C  0.35102372  0.64830095  0.56160294    -0.16600
C2342       C  0.33201643  0.65377715  0.54518803     0.02300
C2343       C  0.36116310  0.64117782  0.48491708     0.12200
C2344       C  0.40188266  0.62877001  0.51864912     0.62900
H2345       H  0.38760896  0.63603735  0.56528956     0.12300
C2346       C  0.30819146  0.66470111  0.55339081     0.55000
H2347       H  0.32193252  0.65454100  0.50742921     0.08100
C2348       C  0.35115821  0.62278181  0.47036044    -0.05700
C2349       C  0.35176265  0.62562577  0.44509567    -0.06500
C2350       C  0.36173867  0.64634009  0.43399045    -0.16100
C2351       C  0.37311514  0.66404601  0.44887564    -0.01700
C2352       C  0.37208668  0.66122622  0.47409873    -0.09200
C2353       C  0.33933108  0.60060100  0.48148397     0.65100
H2354       H  0.34349647  0.61190757  0.43387995     0.10500
C2355       C  0.38604340  0.68610066  0.43878678     0.63500
H2356       H  0.37917706  0.67520059  0.48583314     0.07900
F2357       F  0.29385561  0.67156619  0.53404107    -0.19600
F2358       F  0.31261376  0.68506536  0.56711997    -0.15800
F2359       F  0.29530016  0.64809183  0.56689986    -0.19300
F2360       F  0.41197151  0.64653900  0.50426665    -0.22700
F2361       F  0.39961026  0.60781482  0.50529414    -0.24200
F2362       F  0.41768423  0.62426697  0.53752481    -0.18100
F2363       F  0.39818269  0.69879871  0.45660456    -0.20600
F2364       F  0.36948687  0.70165489  0.42841239    -0.21800
F2365       F  0.40295795  0.67903637  0.42178953    -0.19000
F2366       F  0.33214163  0.58415784  0.46405857    -0.19100
F2367       F  0.31914296  0.60732324  0.49453969    -0.22900
F2368       F  0.35540099  0.58908950  0.49675458    -0.24500
C2369       C  0.15107088  0.52598418  0.87509932    -0.11300
C2370       C  0.14412231  0.51364326  0.85410505     0.11300
C2371       C  0.13632753  0.52679197  0.83358191    -0.03100
C2372       C  0.13711780  0.55217098  0.83433668    -0.05900
C2373       C  0.14543050  0.56461433  0.85484268    -0.16600
C2374       C  0.15189015  0.55140021  0.87587347     0.02300
C2375       C  0.14584375  0.48689391  0.85385006     0.12200
C2376       C  0.12755502  0.51402048  0.81090693     0.62900
H2377       H  0.13190993  0.56253949  0.81855198     0.12300
C2378       C  0.15872427  0.56399432  0.89924452     0.55000
H2379       H  0.15636351  0.51544469  0.89074353     0.08100
C2380       C  0.16785950  0.47503615  0.84869620    -0.05700
C2381       C  0.16801395  0.44971215  0.84741601    -0.06500
C2382       C  0.14703417  0.43589654  0.85124628    -0.16100
C2383       C  0.12505376  0.44784387  0.85710792    -0.01700
C2384       C  0.12498319  0.47328395  0.85844978    -0.09200
C2385       C  0.19113179  0.48907312  0.84469019     0.65100
H2386       H  0.18470537  0.44044510  0.84312471     0.10500
C2387       C  0.10186990  0.43406925  0.86228104     0.63500
H2388       H  0.10847352  0.48290260  0.86269619     0.07900
F2389       F  0.18055352  0.57581657  0.89658832    -0.19600
F2390       F  0.16098531  0.54784703  0.91825722    -0.15800
F2391       F  0.14095638  0.58048310  0.90523889    -0.19300
F2392       F  0.10747579  0.50017957  0.81627752    -0.22700
F2393       F  0.14551359  0.49918198  0.80192266    -0.24200
F2394       F  0.12118932  0.53022181  0.79290649    -0.18100
F2395       F  0.08371163  0.44917023  0.87053089    -0.20600
F2396       F  0.10595491  0.41672205  0.87984979    -0.21800
F2397       F  0.09371524  0.42307533  0.84138120    -0.19000
F2398       F  0.21021621  0.47402396  0.83878311    -0.19100
F2399       F  0.19720048  0.50136586  0.86556153    -0.22900
F2400       F  0.18825022  0.50548689  0.82605300    -0.24500
C2401       C  0.12105557  0.63980495  0.02614600    -0.11300
C2402       C  0.13949081  0.64813624  0.01089037     0.11300
C2403       C  0.16063372  0.65845915  0.02087908    -0.03100
C2404       C  0.16274103  0.65978538  0.04609270    -0.05900
C2405       C  0.14423776  0.65190566  0.06149051    -0.16600
C2406       C  0.12303611  0.64148031  0.05149512     0.02300
C2407       C  0.13625713  0.64663122  0.98436959     0.12200
C2408       C  0.18068931  0.66847062  0.00494142     0.62900
H2409       H  0.17875047  0.66772143  0.05404327     0.12300
C2410       C  0.10291174  0.63165807  0.06739566     0.55000
H2411       H  0.10497370  0.63219690  0.01796310     0.08100
C2412       C  0.14362550  0.62618794  0.97110242    -0.05700
C2413       C  0.14551223  0.62817353  0.94585759    -0.06500
C2414       C  0.13946717  0.64963307  0.93347647    -0.16100
C2415       C  0.12910975  0.66912433  0.94688353    -0.01700
C2416       C  0.12792789  0.66716882  0.97222775    -0.09200
C2417       C  0.14969366  0.60254012  0.98366938     0.65100
H2418       H  0.15255046  0.61304438  0.93575865     0.10500
C2419       C  0.11969205  0.69215611  0.93512867     0.63500
H2420       H  0.12166393  0.68223669  0.98302080     0.07900
F2421       F  0.08590197  0.61906223  0.05407338    -0.19600
F2422       F  0.09122994  0.65047512  0.07892801    -0.15800
F2423       F  0.11238206  0.61603425  0.08450091    -0.19300
F2424       F  0.17198543  0.68749811  0.99126805    -0.22700
F2425       F  0.18921477  0.65066933  0.98965450    -0.24200
F2426       F  0.19998337  0.67691350  0.01842908    -0.18100
F2427       F  0.10811316  0.70700204  0.95161051    -0.20600
F2428       F  0.10313423  0.68645578  0.91728589    -0.21800
F2429       F  0.13865007  0.70516257  0.92531332    -0.19000
F2430       F  0.15604686  0.58468336  0.96734784    -0.19100
F2431       F  0.12977168  0.59455057  0.99646712    -0.22900
F2432       F  0.16874486  0.60578242  0.99948195    -0.24500
C2433       C  0.25216409  0.62459317  0.78642075    -0.11300
C2434       C  0.24497577  0.62857593  0.76245587     0.11300
C2435       C  0.22027700  0.63196327  0.75691730    -0.03100
C2436       C  0.20348786  0.63181024  0.77592012    -0.05900
C2437       C  0.21064400  0.62861098  0.80009247    -0.16600
C2438       C  0.23542991  0.62487321  0.80556057     0.02300
C2439       C  0.26381283  0.62950588  0.74349524     0.12200
C2440       C  0.21173105  0.63587457  0.73108280     0.62900
H2441       H  0.18452870  0.63467108  0.77204073     0.12300
C2442       C  0.24430460  0.62101978  0.83127251     0.55000
H2443       H  0.27118533  0.62177470  0.79001813     0.08100
C2444       C  0.27796656  0.65044081  0.73964708    -0.05700
C2445       C  0.29487634  0.65032444  0.72074753    -0.06500
C2446       C  0.29772732  0.63022532  0.70553346    -0.16100
C2447       C  0.28402643  0.60900171  0.70988141    -0.01700
C2448       C  0.26732531  0.60902163  0.72904547    -0.09200
C2449       C  0.27529724  0.67273121  0.75546983     0.65100
H2450       H  0.30600537  0.66610549  0.71761081     0.10500
C2451       C  0.28755812  0.58619826  0.69504335     0.63500
H2452       H  0.25657265  0.59309239  0.73278880     0.07900
F2453       F  0.24205003  0.64225075  0.84424439    -0.19600
F2454       F  0.26835913  0.61419968  0.83189126    -0.15800
F2455       F  0.23096940  0.60298412  0.84234142    -0.19300
F2456       F  0.21636611  0.61545486  0.71749160    -0.22700
F2457       F  0.22364462  0.65535860  0.72092019    -0.24200
F2458       F  0.18717022  0.64045797  0.72997069    -0.18100
F2459       F  0.27466044  0.56689960  0.70441058    -0.20600
F2460       F  0.31172734  0.57989265  0.69489068    -0.21800
F2461       F  0.27978490  0.58998889  0.67159127    -0.19000
F2462       F  0.28924567  0.69177726  0.74715917    -0.19100
F2463       F  0.28252879  0.66740694  0.77879727    -0.22900
F2464       F  0.25149248  0.68027373  0.75580151    -0.24500
C2465       C  0.33564640  0.97832221  0.85415391    -0.11300
C2466       C  0.35865525  0.98794429  0.85813368     0.11300
C2467       C  0.37860111  0.97230522  0.86120778    -0.03100
C2468       C  0.37505178  0.94727565  0.85820891    -0.05900
C2469       C  0.35214287  0.93756393  0.85296099    -0.16600
C2470       C  0.33188074  0.95336365  0.85141047     0.02300
C2471       C  0.36115790  0.01463042  0.85732394     0.12200
C2472       C  0.40336718  0.98209012  0.86774734     0.62900
H2473       H  0.39021328  0.93504001  0.85999882     0.12300
C2474       C  0.30648397  0.94438354  0.84596149     0.55000
H2475       H  0.32067621  0.99081364  0.85246683     0.08100
C2476       C  0.36265729  0.02702782  0.83502777    -0.05700
C2477       C  0.36259167  0.05238590  0.83511919    -0.06500
C2478       C  0.36012036  0.06585823  0.85659910    -0.16100
C2479       C  0.35899660  0.05322887  0.87910360    -0.01700
C2480       C  0.35965133  0.02772646  0.87892831    -0.09200
C2481       C  0.36309934  0.01349725  0.81109030     0.65100
H2482       H  0.36330453  0.06184930  0.81799568     0.10500
C2483       C  0.35672522  0.06616630  0.90323905     0.63500
H2484       H  0.35810991  0.01765534  0.89566865     0.07900
F2485       F  0.29037399  0.96323787  0.84263010    -0.19600
F2486       F  0.29808647  0.93056568  0.86504683    -0.15800
F2487       F  0.30657349  0.93074309  0.82501615    -0.19300
F2488       F  0.40209720  0.99401001  0.88966807    -0.22700
F2489       F  0.41123977  0.99807462  0.85021357    -0.24200
F2490       F  0.42033679  0.96382974  0.86984116    -0.18100
F2491       F  0.35865441  0.05037635  0.92258992    -0.20600
F2492       F  0.33441493  0.07730221  0.90477982    -0.21800
F2493       F  0.37487612  0.08319502  0.90552949    -0.19000
F2494       F  0.36678420  0.02888026  0.79167701    -0.19100
F2495       F  0.34129194  0.00184037  0.80764271    -0.22900
F2496       F  0.38146599  0.99658759  0.81104225    -0.24500
C2497       C  0.36443574  0.88008762  0.96961710    -0.11300
C2498       C  0.36232516  0.85870061  0.98309134     0.11300
C2499       C  0.35861168  0.83647345  0.97103059    -0.03100
C2500       C  0.35730439  0.83640535  0.94566737    -0.05900
C2501       C  0.35875803  0.85781347  0.93201065    -0.16600
C2502       C  0.36265157  0.88013425  0.94415199     0.02300
C2503       C  0.36173936  0.86018630  0.00992666     0.12200
C2504       C  0.35525712  0.81298484  0.98495182     0.62900
H2505       H  0.35408538  0.81953371  0.93631222     0.12300
C2506       C  0.36500738  0.90389469  0.93053725     0.55000
H2507       H  0.36679947  0.89689471  0.97934677     0.08100
C2508       C  0.38283168  0.85981572  0.02430378    -0.05700
C2509       C  0.38041607  0.85838413  0.04966719    -0.06500
C2510       C  0.35762319  0.85794733  0.06101463    -0.16100
C2511       C  0.33642292  0.85952060  0.04627081    -0.01700
C2512       C  0.33909797  0.86078053  0.02101891    -0.09200
C2513       C  0.40767551  0.86139264  0.01282165     0.65100
H2514       H  0.39645051  0.85779260  0.06086328     0.10500
C2515       C  0.31088385  0.85912284  0.05653317     0.63500
H2516       H  0.32335351  0.86160155  0.00941132     0.07900
F2517       F  0.37236360  0.92249522  0.94555102    -0.19600
F2518       F  0.34294692  0.91029453  0.92070712    -0.15800
F2519       F  0.38194132  0.90166319  0.91227194    -0.19300
F2520       F  0.33429926  0.81406359  0.99848882    -0.22700
F2521       F  0.37463551  0.80918442  0.00023892    -0.24200
F2522       F  0.35353018  0.79325592  0.96968123    -0.18100
F2523       F  0.29347326  0.85878167  0.03855430    -0.20600
F2524       F  0.30690889  0.87958807  0.07031131    -0.21800
F2525       F  0.30763739  0.83861538  0.07049073    -0.19000
F2526       F  0.42590887  0.85957514  0.02985300    -0.19100
F2527       F  0.41003583  0.88337282  0.00114042    -0.22900
F2528       F  0.41073592  0.84300726  0.99620627    -0.24500
C2529       C  0.34949501  0.77374718  0.75866134    -0.11300
C2530       C  0.37075625  0.76014634  0.75687546     0.11300
C2531       C  0.39091078  0.76609875  0.77141054    -0.03100
C2532       C  0.38890900  0.78556046  0.78762850    -0.05900
C2533       C  0.36769340  0.79943566  0.78931732    -0.16600
C2534       C  0.34743287  0.79323679  0.77482123     0.02300
C2535       C  0.37167719  0.74076189  0.73840850     0.12200
C2536       C  0.41455405  0.75230015  0.76942592     0.62900
H2537       H  0.40420272  0.79045904  0.79880975     0.12300
C2538       C  0.32360736  0.80674720  0.77648764     0.55000
H2539       H  0.33451822  0.76904850  0.74696722     0.08100
C2540       C  0.36071500  0.71790043  0.74202073    -0.05700
C2541       C  0.36094106  0.70117574  0.72287436    -0.06500
C2542       C  0.37152672  0.70678753  0.70050120    -0.16100
C2543       C  0.38316024  0.72932938  0.69720730    -0.01700
C2544       C  0.38272423  0.74612246  0.71623371    -0.09200
C2545       C  0.34874276  0.71128356  0.76586418     0.65100
H2546       H  0.35224114  0.68375529  0.72498245     0.10500
C2547       C  0.39658532  0.73531975  0.67402687     0.63500
H2548       H  0.39079750  0.76380627  0.71387737     0.07900
F2549       F  0.30552174  0.79547134  0.76339738    -0.19600
F2550       F  0.32644306  0.82979243  0.76729727    -0.15800
F2551       F  0.31610424  0.80800489  0.80032506    -0.19300
F2552       F  0.42484668  0.75645548  0.74703578    -0.22700
F2553       F  0.41052172  0.72779972  0.77215260    -0.24200
F2554       F  0.43094634  0.75936338  0.78695003    -0.18100
F2555       F  0.38048443  0.73734851  0.65504130    -0.20600
F2556       F  0.41307992  0.71723107  0.66901004    -0.21800
F2557       F  0.40911917  0.75689414  0.67583756    -0.19000
F2558       F  0.34022972  0.68775335  0.76581258    -0.19100
F2559       F  0.32940869  0.72645893  0.77020999    -0.22900
F2560       F  0.36516515  0.71345259  0.78455246    -0.24500
C2561       C  0.26335007  0.77549035  0.88480950    -0.11300
C2562       C  0.26627781  0.75505730  0.87023442     0.11300
C2563       C  0.28724687  0.75276394  0.85577867    -0.03100
C2564       C  0.30440466  0.77154152  0.85606404    -0.05900
C2565       C  0.30140877  0.79241054  0.87036659    -0.16600
C2566       C  0.28071920  0.79403565  0.88568709     0.02300
C2567       C  0.24612403  0.73729086  0.86940447     0.12200
C2568       C  0.29143974  0.73067648  0.83999647     0.62900
H2569       H  0.32012239  0.77021517  0.84450333     0.12300
C2570       C  0.27661722  0.81490102  0.90310976     0.55000
H2571       H  0.24690262  0.77694482  0.89530780     0.08100
C2572       C  0.24146387  0.72083463  0.88845919    -0.05700
C2573       C  0.22118360  0.70554006  0.88674907    -0.06500
C2574       C  0.20553069  0.70613279  0.86667585    -0.16100
C2575       C  0.21073447  0.72231961  0.84733075    -0.01700
C2576       C  0.23061107  0.73801812  0.84943278    -0.09200
C2577       C  0.25778766  0.71948278  0.91051132     0.65100
H2578       H  0.21727455  0.69306651  0.90133204     0.10500
C2579       C  0.19638619  0.72228805  0.82395078     0.63500
H2580       H  0.23435354  0.75108333  0.83531841     0.07900
F2581       F  0.25716997  0.81073769  0.91830447    -0.19600
F2582       F  0.27189463  0.83588306  0.89034409    -0.15800
F2583       F  0.29679507  0.81803572  0.91753959    -0.19300
F2584       F  0.27416197  0.72958798  0.82200829    -0.22700
F2585       F  0.29013168  0.70994365  0.85390662    -0.24200
F2586       F  0.31390806  0.73118637  0.82899534    -0.18100
F2587       F  0.20676796  0.73692956  0.80647939    -0.20600
F2588       F  0.17322394  0.73065860  0.82807295    -0.21800
F2589       F  0.19556836  0.69903098  0.81488657    -0.19000
F2590       F  0.25137279  0.70068662  0.92576176    -0.19100
F2591       F  0.25630939  0.74074416  0.92349723    -0.22900
F2592       F  0.28145042  0.71588412  0.90338949    -0.24500
C2593       C  0.12626678  0.87159394  0.52519334    -0.11300
C2594       C  0.14355143  0.85868823  0.51184467     0.11300
C2595       C  0.16071294  0.84410727  0.52404202    -0.03100
C2596       C  0.16017254  0.84322530  0.54941809    -0.05900
C2597       C  0.14278798  0.85589362  0.56276837    -0.16600
C2598       C  0.12533391  0.87013033  0.55063593     0.02300
C2599       C  0.14361078  0.86076386  0.48506014     0.12200
C2600       C  0.17945809  0.82945882  0.51030863     0.62900
H2601       H  0.17332498  0.83246317  0.55914351     0.12300
C2602       C  0.10628982  0.88409028  0.56455452     0.55000
H2603       H  0.11348735  0.88277743  0.51547059     0.08100
C2604       C  0.12817725  0.84668069  0.47043685    -0.05700
C2605       C  0.13181846  0.84678758  0.44529424    -0.06500
C2606       C  0.15002120  0.86082627  0.43424965    -0.16100
C2607       C  0.16406043  0.87659043  0.44894956    -0.01700
C2608       C  0.16055390  0.87613936  0.47419453    -0.09200
C2609       C  0.10808195  0.83148104  0.48138049     0.65100
H2610       H  0.12063741  0.83530177  0.43410602     0.10500
C2611       C  0.18254506  0.89394928  0.43842108     0.63500
H2612       H  0.17166724  0.88722956  0.48588065     0.07900
F2613       F  0.09155722  0.86818566  0.57700266    -0.19600
F2614       F  0.09185797  0.89778964  0.54936857    -0.15800
F2615       F  0.11732132  0.89951164  0.58082729    -0.19300
F2616       F  0.19476100  0.84475673  0.49782659    -0.22700
F2617       F  0.16815277  0.81419908  0.49409061    -0.24200
F2618       F  0.19338306  0.81541459  0.52565749    -0.18100
F2619       F  0.19124325  0.90984929  0.45566340    -0.20600
F2620       F  0.17208434  0.90752196  0.42020353    -0.21800
F2621       F  0.20199163  0.88119291  0.42932261    -0.19000
F2622       F  0.09549809  0.81869343  0.46394934    -0.19100
F2623       F  0.09184740  0.84632064  0.49319539    -0.22900
F2624       F  0.11754674  0.81508639  0.49770713    -0.24500
C2625       C  0.12230250  0.97599030  0.65758434    -0.11300
C2626       C  0.13430436  0.98761357  0.63858591     0.11300
C2627       C  0.14514312  0.97382116  0.62004022    -0.03100
C2628       C  0.14539545  0.94858075  0.62231646    -0.05900
C2629       C  0.13503314  0.93677802  0.64236809    -0.16600
C2630       C  0.12167737  0.95067298  0.65945190     0.02300
C2631       C  0.13809150  0.01399768  0.64031232     0.12200
C2632       C  0.15717800  0.98572075  0.59836509     0.62900
H2633       H  0.15487282  0.93800789  0.60886952     0.12300
C2634       C  0.10680901  0.93935249  0.67962866     0.55000
H2635       H  0.11428681  0.98700114  0.67163963     0.08100
C2636       C  0.11960528  0.03104179  0.63584718    -0.05700
C2637       C  0.12508900  0.05570814  0.63833503    -0.06500
C2638       C  0.14838866  0.06364987  0.64466231    -0.16100
C2639       C  0.16696088  0.04642381  0.64869492    -0.01700
C2640       C  0.16114290  0.02182166  0.64713865    -0.09200
C2641       C  0.09435833  0.02328239  0.62839334     0.65100
H2642       H  0.11116456  0.06908446  0.63518788     0.10500
C2643       C  0.19271472  0.05364319  0.65485379     0.63500
H2644       H  0.17474211  0.00825689  0.65090308     0.07900
F2645       F  0.09164254  0.95606722  0.69042704    -0.19600
F2646       F  0.12184755  0.93015967  0.69734775    -0.15800
F2647       F  0.09244704  0.92110306  0.67039320    -0.19300
F2648       F  0.17811163  0.99730221  0.60545504    -0.22700
F2649       F  0.14168447  0.00240321  0.58806541    -0.24200
F2650       F  0.16321020  0.96899964  0.58077353    -0.18100
F2651       F  0.20709025  0.03379132  0.65990837    -0.20600
F2652       F  0.19283375  0.06843314  0.67495799    -0.21800
F2653       F  0.20294654  0.06567177  0.63545628    -0.19000
F2654       F  0.07974777  0.04291914  0.62317195    -0.19100
F2655       F  0.08358079  0.01037285  0.64687223    -0.22900
F2656       F  0.09555279  0.00893527  0.60798579    -0.24500
C2657       C  0.24767870  0.78829075  0.63496142    -0.11300
C2658       C  0.24045155  0.76486023  0.62889155     0.11300
C2659       C  0.21597199  0.75995592  0.62377802    -0.03100
C2660       C  0.19950899  0.77920449  0.62391422    -0.05900
C2661       C  0.20653633  0.80296813  0.62978589    -0.16600
C2662       C  0.23120160  0.80761599  0.63563992     0.02300
C2663       C  0.25888133  0.74555462  0.62911899     0.12200
C2664       C  0.20717612  0.73439055  0.61890272     0.62900
H2665       H  0.18069102  0.77553254  0.62006845     0.12300
C2666       C  0.24047081  0.83251740  0.64266969     0.55000
H2667       H  0.26651110  0.79117730  0.63944700     0.08100
C2668       C  0.27466562  0.74169339  0.60940957    -0.05700
C2669       C  0.29147151  0.72271433  0.61092250    -0.06500
C2670       C  0.29260915  0.70747981  0.63126056    -0.16100
C2671       C  0.27724370  0.71204434  0.65134717    -0.01700
C2672       C  0.26071790  0.73122469  0.64988336    -0.09200
C2673       C  0.27360888  0.75747830  0.58691304     0.65100
H2674       H  0.30373621  0.71950674  0.59605956     0.10500
C2675       C  0.27867715  0.69740448  0.67456739     0.63500
H2676       H  0.24877445  0.73509827  0.66490083     0.07900
F2677       F  0.23498380  0.84907235  0.62472690    -0.19600
F2678       F  0.26527742  0.83277807  0.64583420    -0.15800
F2679       F  0.23011255  0.83960012  0.66427529    -0.19300
F2680       F  0.21009413  0.72043439  0.63944600    -0.22700
F2681       F  0.22019613  0.72422308  0.60017436    -0.24200
F2682       F  0.18297487  0.73386811  0.61262299    -0.18100
F2683       F  0.26484479  0.70741760  0.69285448    -0.20600
F2684       F  0.30234418  0.69655740  0.68252645    -0.21800
F2685       F  0.27028395  0.67422489  0.67054232    -0.19000
F2686       F  0.29013867  0.75020846  0.56960309    -0.19100
F2687       F  0.27868553  0.78118256  0.59289806    -0.22900
F2688       F  0.25081607  0.75635238  0.57677042    -0.24500
C2689       C  0.13015178  0.77651808  0.74054281    -0.11300
C2690       C  0.12849245  0.75296672  0.73166519     0.11300
C2691       C  0.12530433  0.74890160  0.70668459    -0.03100
C2692       C  0.12581491  0.76888868  0.69098150    -0.05900
C2693       C  0.12840813  0.79265927  0.69965489    -0.16600
C2694       C  0.13006254  0.79663945  0.72506019     0.02300
C2695       C  0.12998300  0.73305050  0.74937987     0.12200
C2696       C  0.12065132  0.72369696  0.69687664     0.62900
H2697       H  0.12386072  0.76609538  0.67169374     0.12300
C2698       C  0.13303128  0.82158622  0.73608435     0.55000
H2699       H  0.13199769  0.77887323  0.75990468     0.08100
C2700       C  0.15241271  0.72302270  0.75641696    -0.05700
C2701       C  0.15250430  0.70484074  0.77414333    -0.06500
C2702       C  0.13137603  0.69835939  0.78656723    -0.16100
C2703       C  0.10897521  0.70883497  0.77985490    -0.01700
C2704       C  0.10866450  0.72579000  0.76091790    -0.09200
C2705       C  0.17617992  0.73254212  0.74639015     0.65100
H2706       H  0.16931891  0.69635947  0.77927109     0.10500
C2707       C  0.08549550  0.70199868  0.79232785     0.63500
H2708       H  0.09185872  0.73421422  0.75547169     0.07900
F2709       F  0.15376747  0.83209795  0.72720316    -0.19600
F2710       F  0.13514152  0.82069994  0.76102493    -0.15800
F2711       F  0.11325250  0.83586848  0.73075957    -0.19300
F2712       F  0.09945570  0.71478484  0.70664309    -0.22700
F2713       F  0.13937307  0.70834191  0.70293589    -0.24200
F2714       F  0.11839101  0.72369704  0.67194464    -0.18100
F2715       F  0.06563836  0.71200564  0.78085489    -0.20600
F2716       F  0.08566370  0.71021292  0.81592304    -0.21800
F2717       F  0.08274102  0.67716777  0.79222779    -0.19000
F2718       F  0.19579330  0.71985307  0.75535048    -0.19100
F2719       F  0.17892526  0.75653043  0.75279969    -0.22900
F2720       F  0.17657886  0.73076802  0.72148804    -0.24500
C2721       C  0.24659086  0.86874563  0.78404878    -0.11300
C2722       C  0.25344101  0.87205347  0.75989336     0.11300
C2723       C  0.27806291  0.87546274  0.75408029    -0.03100
C2724       C  0.29520365  0.87492426  0.77285076    -0.05900
C2725       C  0.28864208  0.87070615  0.79712562    -0.16600
C2726       C  0.26371453  0.86780415  0.80289131     0.02300
C2727       C  0.23431180  0.87185875  0.74103990     0.12200
C2728       C  0.28618525  0.87942090  0.72810625     0.62900
H2729       H  0.31409690  0.87739828  0.76851059     0.12300
C2730       C  0.25487653  0.86402261  0.82864343     0.55000
H2731       H  0.22755122  0.86653581  0.78792892     0.08100
C2732       C  0.22464948  0.85000583  0.73191081    -0.05700
C2733       C  0.20667025  0.85120407  0.71398994    -0.06500
C2734       C  0.19822410  0.87339061  0.70500692    -0.16100
C2735       C  0.20770388  0.89523456  0.71429643    -0.01700
C2736       C  0.22556746  0.89406468  0.73240356    -0.09200
C2737       C  0.23297419  0.82557046  0.74134822     0.65100
H2738       H  0.19898608  0.83470846  0.70677374     0.10500
C2739       C  0.19849742  0.91956435  0.70561260     0.63500
H2740       H  0.23298912  0.91051825  0.73995749     0.07900
F2741       F  0.26247635  0.84173277  0.83704973    -0.19600
F2742       F  0.22991971  0.86456041  0.83015102    -0.15800
F2743       F  0.26373639  0.88212683  0.84342370    -0.19300
F2744       F  0.27620538  0.90051347  0.71918273    -0.22700
F2745       F  0.27885574  0.86027852  0.71384314    -0.24200
F2746       F  0.31105183  0.88130424  0.72627395    -0.18100
F2747       F  0.20854227  0.93846538  0.71853908    -0.20600
F2748       F  0.17368896  0.92065013  0.70833650    -0.21800
F2749       F  0.20430503  0.92272562  0.68150251    -0.19000
F2750       F  0.22306503  0.80668965  0.72827436    -0.19100
F2751       F  0.22603857  0.82295809  0.76521847    -0.22900
F2752       F  0.25782691  0.82370195  0.73983910    -0.24500
C2753       C  0.52853689  0.36676715  0.62588307    -0.11300
C2754       C  0.51532731  0.36361697  0.64728673     0.11300
C2755       C  0.52763550  0.35847059  0.66912852    -0.03100
C2756       C  0.55300205  0.35695122  0.66877780    -0.05900
C2757       C  0.56634296  0.35914143  0.64722085    -0.16600
C2758       C  0.55390675  0.36441103  0.62532290     0.02300
C2759       C  0.48854185  0.36256420  0.64567844     0.12200
C2760       C  0.51397954  0.35351664  0.69249630     0.62900
H2761       H  0.56259769  0.35286536  0.68535054     0.12300
C2762       C  0.56705656  0.36733578  0.60138412     0.55000
H2763       H  0.51859926  0.37012679  0.60933210     0.08100
C2764       C  0.47360866  0.38319673  0.64800116    -0.05700
C2765       C  0.44832939  0.38002808  0.64812154    -0.06500
C2766       C  0.43779039  0.35722769  0.64448095    -0.16100
C2767       C  0.45287172  0.33681469  0.64075273    -0.01700
C2768       C  0.47805494  0.33990836  0.64159925    -0.09200
C2769       C  0.48431036  0.40840708  0.64942995     0.65100
H2770       H  0.43654399  0.39541550  0.65064849     0.10500
C2771       C  0.44257897  0.31168642  0.63679097     0.63500
H2772       H  0.48993976  0.32453544  0.63932081     0.07900
F2773       F  0.55192388  0.37600777  0.58342210    -0.19600
F2774       F  0.57594088  0.34522324  0.59391259    -0.15800
F2775       F  0.58593602  0.38349478  0.60385379    -0.19300
F2776       F  0.49970111  0.33320828  0.68981514    -0.22700
F2777       F  0.49943260  0.37294187  0.69827916    -0.24200
F2778       F  0.52947233  0.34952165  0.71174474    -0.18100
F2779       F  0.42985238  0.31102479  0.61529981    -0.20600
F2780       F  0.42740966  0.30570337  0.65568418    -0.21800
F2781       F  0.46049627  0.29427019  0.63562370    -0.19000
F2782       F  0.46661148  0.42588643  0.65207413    -0.19100
F2783       F  0.49691983  0.41325939  0.62839879    -0.22900
F2784       F  0.49990279  0.41018161  0.66883712    -0.24500
C2785       C  0.64693137  0.33919805  0.52314111    -0.11300
C2786       C  0.64286474  0.36233417  0.51371721     0.11300
C2787       C  0.63801301  0.38174310  0.52960758    -0.03100
C2788       C  0.63954044  0.37762828  0.55472602    -0.05900
C2789       C  0.64489971  0.35465505  0.56428653    -0.16600
C2790       C  0.64809379  0.33486104  0.54817507     0.02300
C2791       C  0.64431473  0.36523350  0.48701282     0.12200
C2792       C  0.63118938  0.40655959  0.52007427     0.62900
H2793       H  0.63655505  0.39242177  0.56718051     0.12300
C2794       C  0.65356281  0.30939094  0.55698561     0.55000
H2795       H  0.64978289  0.32455246  0.51047441     0.08100
C2796       C  0.66680025  0.36570618  0.47487023    -0.05700
C2797       C  0.66705391  0.36426910  0.44948066    -0.06500
C2798       C  0.64564245  0.36263019  0.43579038    -0.16100
C2799       C  0.62305261  0.36428659  0.44805539    -0.01700
C2800       C  0.62289805  0.36490906  0.47354788    -0.09200
C2801       C  0.69047639  0.36734095  0.48873097     0.65100
H2802       H  0.68425440  0.36361045  0.44020077     0.10500
C2803       C  0.59910986  0.36550981  0.43470148     0.63500
H2804       H  0.60592714  0.36441196  0.48328220     0.07900
F2805       F  0.65819409  0.29371200  0.53804795    -0.19600
F2806       F  0.63398841  0.30039125  0.56964760    -0.15800
F2807       F  0.67370889  0.30958314  0.57173556    -0.19300
F2808       F  0.61002142  0.40499542  0.50692274    -0.22700
F2809       F  0.64929476  0.41540651  0.50531588    -0.24200
F2810       F  0.62752489  0.42294433  0.53861671    -0.18100
F2811       F  0.58024768  0.37150429  0.45000836    -0.20600
F2812       F  0.59394879  0.34332152  0.42450600    -0.21800
F2813       F  0.60015533  0.38299011  0.41683672    -0.19000
F2814       F  0.71012467  0.36948791  0.47338891    -0.19100
F2815       F  0.69375953  0.34684677  0.50264723    -0.22900
F2816       F  0.69019239  0.38735378  0.50365833    -0.24500
C2817       C  0.53010136  0.17188185  0.85153235    -0.11300
C2818       C  0.51888184  0.14953791  0.85546098     0.11300
C2819       C  0.53318060  0.12877061  0.85968034    -0.03100
C2820       C  0.55847689  0.13112819  0.85944997    -0.05900
C2821       C  0.56990235  0.15355844  0.85582304    -0.16600
C2822       C  0.55538001  0.17455300  0.85234382     0.02300
C2823       C  0.49204856  0.14854625  0.85456799     0.12200
C2824       C  0.52179001  0.10428909  0.86469624     0.62900
H2825       H  0.56959963  0.11531338  0.86225069     0.12300
C2826       C  0.56608412  0.19971755  0.84942371     0.55000
H2827       H  0.51867954  0.18737346  0.84802438     0.08100
C2828       C  0.47749394  0.15750044  0.87361090    -0.05700
C2829       C  0.45221647  0.15689959  0.87098784    -0.06500
C2830       C  0.44115089  0.14747667  0.85017465    -0.16100
C2831       C  0.45578452  0.13824295  0.83121567    -0.01700
C2832       C  0.48107711  0.13933570  0.83367229    -0.09200
C2833       C  0.48860602  0.16790854  0.89646239     0.65100
H2834       H  0.44078550  0.16405759  0.88519307     0.10500
C2835       C  0.44491959  0.12795850  0.80819357     0.63500
H2836       H  0.49264738  0.13305139  0.81917317     0.07900
F2837       F  0.54853143  0.21696772  0.84490651    -0.19600
F2838       F  0.58212405  0.20015077  0.83029232    -0.15800
F2839       F  0.57787806  0.20628186  0.87046015    -0.19300
F2840       F  0.50859089  0.09677087  0.84488966    -0.22700
F2841       F  0.50666334  0.10590115  0.88451719    -0.24200
F2842       F  0.53899433  0.08678231  0.86954787    -0.18100
F2843       F  0.42963915  0.14474587  0.79771480    -0.20600
F2844       F  0.43212566  0.10715995  0.81350622    -0.21800
F2845       F  0.46247158  0.12204367  0.79137014    -0.19000
F2846       F  0.47125069  0.17318983  0.91368487    -0.19100
F2847       F  0.50080051  0.18903000  0.89108890    -0.22900
F2848       F  0.50459274  0.15151491  0.90646788    -0.24500
C2849       C  0.65460240  0.12703047  0.97723939    -0.11300
C2850       C  0.64209475  0.14543943  0.98919109     0.11300
C2851       C  0.63139963  0.16437816  0.97575395    -0.03100
C2852       C  0.63424515  0.16455107  0.95049989    -0.05900
C2853       C  0.64780247  0.14674662  0.93844519    -0.16600
C2854       C  0.65747216  0.12708900  0.95197603     0.02300
C2855       C  0.64331102  0.14607572  0.01591147     0.12200
C2856       C  0.61791960  0.18484719  0.98814093     0.62900
H2857       H  0.62681026  0.17936984  0.94007907     0.12300
C2858       C  0.67022307  0.10588949  0.94010690     0.55000
H2859       H  0.66282404  0.11293686  0.98807997     0.08100
C2860       C  0.62815490  0.13194700  0.03094705    -0.05700
C2861       C  0.63067344  0.13407344  0.05620197    -0.06500
C2862       C  0.64799335  0.14949043  0.06644341    -0.16100
C2863       C  0.66320320  0.16343874  0.05129949    -0.01700
C2864       C  0.66081434  0.16113245  0.02618795    -0.09200
C2865       C  0.60964367  0.11469185  0.02036937     0.65100
H2866       H  0.61936442  0.12349548  0.06816737     0.10500
C2867       C  0.68098106  0.18162459  0.06154749     0.63500
H2868       H  0.67239035  0.17142824  0.01420107     0.07900
F2869       F  0.67493430  0.08748648  0.95643334    -0.19600
F2870       F  0.69205069  0.11321688  0.93043795    -0.15800
F2871       F  0.65572580  0.09646135  0.92212139    -0.19300
F2872       F  0.63388169  0.19865643  0.00146777    -0.22700
F2873       F  0.60043057  0.17562976  0.00341733    -0.24200
F2874       F  0.60660033  0.19986264  0.97161563    -0.18100
F2875       F  0.69820322  0.16998439  0.07539945    -0.20600
F2876       F  0.66865721  0.19811444  0.07566261    -0.21800
F2877       F  0.69287043  0.19430468  0.04352434    -0.19000
F2878       F  0.59628930  0.10329549  0.03822575    -0.19100
F2879       F  0.62118684  0.09709055  0.00694558    -0.22900
F2880       F  0.59382743  0.12713453  0.00556552    -0.24500
C2881       C  0.62556220  0.22563944  0.76070220    -0.11300
C2882       C  0.63978931  0.24623991  0.76382279     0.11300
C2883       C  0.65454243  0.24843685  0.78454072    -0.03100
C2884       C  0.65380928  0.22997391  0.80205003    -0.05900
C2885       C  0.63972386  0.20893295  0.79898745    -0.16600
C2886       C  0.62596167  0.20635443  0.77726770     0.02300
C2887       C  0.63871360  0.26511761  0.74480461     0.12200
C2888       C  0.67115496  0.27004447  0.78796037     0.62900
H2889       H  0.66457416  0.23187149  0.81827538     0.12300
C2890       C  0.61215122  0.18346324  0.77077132     0.55000
H2891       H  0.61439646  0.22466768  0.74464391     0.08100
C2892       C  0.65044503  0.26221135  0.72223457    -0.05700
C2893       C  0.64788445  0.28044196  0.70471613    -0.06500
C2894       C  0.63416013  0.30123310  0.70918307    -0.16100
C2895       C  0.62215879  0.30402818  0.73158951    -0.01700
C2896       C  0.62450997  0.28567717  0.74906703    -0.09200
C2897       C  0.66552380  0.23997008  0.71662481     0.65100
H2898       H  0.65681624  0.27874202  0.68736291     0.10500
C2899       C  0.60645956  0.32591898  0.73665561     0.63500
H2900       H  0.61524554  0.28717201  0.76625521     0.07900
F2901       F  0.62791854  0.16408557  0.76985287    -0.19600
F2902       F  0.60113876  0.18514549  0.74834814    -0.15800
F2903       F  0.59423810  0.17906379  0.78761019    -0.19300
F2904       F  0.65765039  0.29092141  0.79016539    -0.22700
F2905       F  0.68640703  0.27228519  0.76828391    -0.24200
F2906       F  0.68532629  0.26774238  0.80846561    -0.18100
F2907       F  0.58901048  0.32802951  0.71888434    -0.20600
F2908       F  0.62048520  0.34658056  0.73688082    -0.21800
F2909       F  0.59488554  0.32414753  0.75878420    -0.19000
F2910       F  0.67742734  0.24221063  0.69475604    -0.19100
F2911       F  0.65084160  0.21981780  0.71539983    -0.22900
F2912       F  0.68272185  0.23646645  0.73439749    -0.24500
C2913       C  0.97725384  0.37943010  0.85714062    -0.11300
C2914       C  0.98991590  0.35754245  0.85543221     0.11300
C2915       C  0.97709403  0.33541370  0.85426091    -0.03100
C2916       C  0.95174131  0.33605940  0.85422126    -0.05900
C2917       C  0.93912141  0.35796940  0.85502322    -0.16600
C2918       C  0.95186148  0.38003682  0.85658801     0.02300
C2919       C  0.01666602  0.35821376  0.85483311     0.12200
C2920       C  0.99011515  0.31127351  0.85283680     0.62900
H2921       H  0.94148226  0.31942528  0.85312305     0.12300
C2922       C  0.93860630  0.40395679  0.85765741     0.55000
H2923       H  0.98748333  0.39605730  0.85844972     0.08100
C2924       C  0.02955625  0.36343753  0.83342398    -0.05700
C2925       C  0.05487639  0.36181199  0.83380676    -0.06500
C2926       C  0.06770448  0.35472433  0.85469575    -0.16100
C2927       C  0.05448397  0.35002036  0.87640359    -0.01700
C2928       C  0.02917873  0.35242985  0.87601353    -0.09200
C2929       C  0.01656481  0.37032274  0.81018467     0.65100
H2930       H  0.06479389  0.36568256  0.81739573     0.10500
C2931       C  0.06640764  0.34188964  0.89984882     0.63500
H2932       H  0.01865572  0.34896190  0.89215969     0.07900
F2933       F  0.92602477  0.40748926  0.83635391    -0.19600
F2934       F  0.95429851  0.42319080  0.86069343    -0.15800
F2935       F  0.92259331  0.40382670  0.87686311    -0.19300
F2936       F  0.00309896  0.30737371  0.87382112    -0.22700
F2937       F  0.00574575  0.31113558  0.83333868    -0.24200
F2938       F  0.97415576  0.29221844  0.85005501    -0.18100
F2939       F  0.08294495  0.35903155  0.90739792    -0.20600
F2940       F  0.07782675  0.31992455  0.89637986    -0.21800
F2941       F  0.04981802  0.33879532  0.91833992    -0.19000
F2942       F  0.03245538  0.37347742  0.79110628    -0.19100
F2943       F  0.00417062  0.39175020  0.81343802    -0.22900
F2944       F  0.00038098  0.35239470  0.80382780    -0.24500
C2945       C  0.87670016  0.35290270  0.97464405    -0.11300
C2946       C  0.85512972  0.35773777  0.98695699     0.11300
C2947       C  0.83408555  0.36412055  0.97390058    -0.03100
C2948       C  0.83522418  0.36455773  0.94853384    -0.05900
C2949       C  0.85649114  0.35851639  0.93614498    -0.16600
C2950       C  0.87773269  0.35284611  0.94927481     0.02300
C2951       C  0.85534654  0.35617806  0.01363453     0.12200
C2952       C  0.81050249  0.37005865  0.98665614     0.62900
H2953       H  0.81924332  0.36886625  0.93809389     0.12300
C2954       C  0.90143364  0.34714399  0.93667511     0.55000
H2955       H  0.89262710  0.34861488  0.98517331     0.08100
C2956       C  0.85433861  0.33369909  0.02588016    -0.05700
C2957       C  0.85520647  0.33366545  0.05124839    -0.06500
C2958       C  0.85599159  0.35526545  0.06438903    -0.16100
C2959       C  0.85667159  0.37770760  0.05219646    -0.01700
C2960       C  0.85706416  0.37773552  0.02680770    -0.09200
C2961       C  0.85189637  0.30995702  0.01229235     0.65100
H2962       H  0.85462901  0.31675515  0.06111729     0.10500
C2963       C  0.85679018  0.40138856  0.06596657     0.63500
H2964       H  0.85812599  0.39463376  0.01696068     0.07900
F2965       F  0.89968978  0.32533088  0.92465281    -0.19600
F2966       F  0.92039860  0.34542593  0.95290493    -0.15800
F2967       F  0.90688612  0.36526511  0.92031477    -0.19300
F2968       F  0.81336745  0.39046031  0.00074021    -0.22700
F2969       F  0.80359208  0.35097504  0.00124974    -0.24200
F2970       F  0.79199610  0.37447583  0.97040220    -0.18100
F2971       F  0.85941315  0.42104546  0.05067234    -0.20600
F2972       F  0.87570458  0.40161197  0.08230009    -0.21800
F2973       F  0.83522499  0.40398254  0.07829847    -0.19000
F2974       F  0.84960012  0.29049271  0.02789395    -0.19100
F2975       F  0.87205831  0.30613380  0.99808496    -0.22900
F2976       F  0.83163897  0.31053138  0.99769413    -0.24500
C2977       C  0.78324636  0.38301298  0.75594509    -0.11300
C2978       C  0.76087311  0.37221744  0.76051424     0.11300
C2979       C  0.75618816  0.36197895  0.78345393    -0.03100
C2980       C  0.77433026  0.36298797  0.80122749    -0.05900
C2981       C  0.79696194  0.37387305  0.79691749    -0.16600
C2982       C  0.80133645  0.38455346  0.77376948     0.02300
C2983       C  0.74298501  0.37148602  0.74050963     0.12200
C2984       C  0.73221941  0.34980143  0.78907368     0.62900
H2985       H  0.77092348  0.35488400  0.81860936     0.12300
C2986       C  0.82469138  0.39761222  0.76738945     0.55000
H2987       H  0.78634112  0.39029449  0.73805116     0.08100
C2988       C  0.72912774  0.39195765  0.73393506    -0.15300
C2989       C  0.71292100  0.38999511  0.71446067    -0.06500
C2990       C  0.71032271  0.36843481  0.70132562    -0.16100
C2991       C  0.72421118  0.34787098  0.70803485    -0.01700
C2992       C  0.74061711  0.34998150  0.72737005    -0.09200
C2993       C  0.73136609  0.41573013  0.74748208     0.65100
H2994       H  0.70214646  0.40547401  0.70919413     0.10500
C2995       C  0.72126182  0.32356641  0.69561012     0.63500
H2996       H  0.75178270  0.33474634  0.73253660     0.07900
F2997       F  0.82842853  0.41653588  0.78328803    -0.19600
F2998       F  0.82412584  0.40729729  0.74429020    -0.15800
F2999       F  0.84391156  0.38167233  0.76837751    -0.19300
F3000       F  0.72954072  0.32944467  0.77487832    -0.22700
F3001       F  0.71337045  0.36552283  0.78445298    -0.24200
F3002       F  0.73068673  0.34274041  0.81305830    -0.18100
F3003       F  0.73444648  0.30557200  0.70698536    -0.20600
F3004       F  0.72925403  0.32510615  0.67202231    -0.21800
F3005       F  0.69723517  0.31672515  0.69586140    -0.19000
F3006       F  0.71533151  0.43290973  0.73888362    -0.19100
F3007       F  0.75444188  0.42488096  0.74489870    -0.22900
F3008       F  0.72662997  0.41216483  0.77176733    -0.24500
C3009       C  0.74675736  0.22526934  0.85312722    -0.11300
C3010       C  0.75310933  0.23520188  0.87552253     0.11300
C3011       C  0.74120344  0.22736879  0.89681180    -0.03100
C3012       C  0.72289494  0.20983437  0.89479275    -0.05900
C3013       C  0.71676417  0.19966323  0.87238794    -0.16600
C3014       C  0.72913963  0.20712188  0.85118792     0.02300
C3015       C  0.77114562  0.25500651  0.87567318     0.12200
C3016       C  0.74774002  0.23755012  0.92146457     0.62900
H3017       H  0.71319265  0.20387609  0.91073222     0.12300
C3018       C  0.72364713  0.19625438  0.82657786     0.55000
H3019       H  0.75583365  0.23192298  0.83709488     0.08100
C3020       C  0.79612388  0.25081747  0.87246281    -0.05700
C3021       C  0.81172737  0.27082332  0.87118203    -0.06500
C3022       C  0.80326153  0.29475275  0.87331251    -0.16100
C3023       C  0.77812118  0.29872458  0.87734927    -0.01700
C3024       C  0.76255217  0.27866361  0.87780953    -0.09200
C3025       C  0.80624446  0.22536400  0.87040186     0.65100
H3026       H  0.83085752  0.26780140  0.86840221     0.10500
C3027       C  0.76733059  0.32372630  0.88101068     0.63500
H3028       H  0.74324871  0.28121295  0.87983525     0.07900
F3029       F  0.73057848  0.17226818  0.82636316    -0.19600
F3030       F  0.73587804  0.20799493  0.80814965    -0.15800
F3031       F  0.69923349  0.19786699  0.82173287    -0.19300
F3032       F  0.74156999  0.26171342  0.92260126    -0.22700
F3033       F  0.77228063  0.23519288  0.92543879    -0.24200
F3034       F  0.73577924  0.22562093  0.93994294    -0.18100
F3035       F  0.74246345  0.32299548  0.88359894    -0.20600
F3036       F  0.77239567  0.33819013  0.86129989    -0.21800
F3037       F  0.77672330  0.33401473  0.90176267    -0.19000
F3038       F  0.83122710  0.22532481  0.86925285    -0.19100
F3039       F  0.79761750  0.21438684  0.84970861    -0.22900
F3040       F  0.79943572  0.21184990  0.89030797    -0.24500
C3041       C  0.86676082  0.16762762  0.52867940    -0.11300
C3042       C  0.86015637  0.14588032  0.51754232     0.11300
C3043       C  0.85512093  0.12530215  0.53191511    -0.03100
C3044       C  0.85509087  0.12776599  0.55726165    -0.05900
C3045       C  0.86069466  0.14982557  0.56845742    -0.16600
C3046       C  0.86706006  0.17007831  0.55400408     0.02300
C3047       C  0.85761350  0.14577613  0.49077695     0.12200
C3048       C  0.84991898  0.10091207  0.52051144     0.62900
H3049       H  0.85061203  0.11244694  0.56861772     0.12300
C3050       C  0.87293803  0.19449733  0.56508351     0.55000
H3051       H  0.87097010  0.18293949  0.51721495     0.08100
C3052       C  0.83628604  0.15414224  0.47939819    -0.05700
C3053       C  0.83534821  0.15471167  0.45399171    -0.06500
C3054       C  0.85520371  0.14796278  0.43968332    -0.16100
C3055       C  0.87655848  0.13943801  0.45113219    -0.01700
C3056       C  0.87734077  0.13853430  0.47662285    -0.09200
C3057       C  0.81483956  0.16308535  0.49405729     0.65100
H3058       H  0.81922708  0.16124256  0.44504632     0.10500
C3059       C  0.89819082  0.13076109  0.43665578     0.63500
H3060       H  0.89353286  0.13250158  0.48579380     0.07900
F3061       F  0.87659487  0.21206988  0.54761066    -0.19600
F3062       F  0.89378835  0.19284332  0.57873515    -0.15800
F3063       F  0.85404244  0.20195359  0.57963094    -0.19300
F3064       F  0.86963001  0.09363068  0.50701916    -0.22700
F3065       F  0.82997221  0.10244948  0.50557558    -0.24200
F3066       F  0.84540544  0.08332995  0.53777399    -0.18100
F3067       F  0.90892243  0.15005253  0.42492924    -0.20600
F3068       F  0.89083869  0.11383507  0.41981133    -0.21800
F3069       F  0.91545999  0.12005619  0.45127450    -0.19000
F3070       F  0.79547035  0.16919139  0.47944685    -0.19100
F3071       F  0.82137701  0.18337894  0.50704528    -0.22900
F3072       F  0.80722365  0.14536001  0.50994623    -0.24500
C3073       C  0.98161202  0.16252990  0.65582451    -0.11300
C3074       C  0.99096676  0.14101822  0.64640878     0.11300
C3075       C  0.97505715  0.12212523  0.63979395    -0.03100
C3076       C  0.94998577  0.12583907  0.64229860    -0.05900
C3077       C  0.94050679  0.14783345  0.65081087    -0.16600
C3078       C  0.95663813  0.16656557  0.65772865     0.02300
C3079       C  0.01765428  0.13912714  0.64418991     0.12200
C3080       C  0.98450228  0.09823766  0.63016042     0.62900
H3081       H  0.93750505  0.11157866  0.63742801     0.12300
C3082       C  0.94779886  0.19075435  0.66710432     0.55000
H3083       H  0.99425158  0.17644497  0.66126486     0.08100
C3084       C  0.03065570  0.15214533  0.62639527    -0.05700
C3085       C  0.05602649  0.15257731  0.62768256    -0.06500
C3086       C  0.06877691  0.14020908  0.64592398    -0.16100
C3087       C  0.05563601  0.12538726  0.66241216    -0.01700
C3088       C  0.03023060  0.12578449  0.66163405    -0.09200
C3089       C  0.01777075  0.16581584  0.60632329     0.65100
H3090       H  0.06604022  0.16342382  0.61482184     0.10500
C3091       C  0.06796804  0.10879035  0.68051744     0.63500
H3092       H  0.01988263  0.11612280  0.67517088     0.07900
F3093       F  0.93641690  0.20306437  0.64858802    -0.19600
F3094       F  0.96656621  0.20508928  0.67534550    -0.15800
F3095       F  0.93193608  0.18731728  0.68611774    -0.19300
F3096       F  0.99736996  0.08638191  0.64799820    -0.22700
F3097       F  0.99945104  0.10225782  0.61053694    -0.24200
F3098       F  0.96593885  0.08319715  0.62278091    -0.18100
F3099       F  0.07822859  0.12219991  0.69891547    -0.20600
F3100       F  0.08557851  0.09534227  0.66900113    -0.21800
F3101       F  0.05183713  0.09269551  0.69088420    -0.19000
F3102       F  0.03382292  0.17485841  0.58937881    -0.19100
F3103       F  0.00502620  0.18504667  0.61583634    -0.22900
F3104       F  0.00193667  0.15055317  0.59449472    -0.24500
C3105       C  0.76657547  0.22908554  0.65332383    -0.11300
C3106       C  0.75669011  0.23445726  0.63060157     0.11300
C3107       C  0.76603353  0.22290969  0.60971424    -0.03100
C3108       C  0.78539937  0.20656426  0.61234638    -0.05900
C3109       C  0.79512891  0.20107852  0.63511311    -0.16600
C3110       C  0.78534327  0.21213988  0.65605917     0.02300
C3111       C  0.73726990  0.25307756  0.62929404     0.12200
C3112       C  0.75554676  0.22773867  0.58479554     0.62900
H3113       H  0.79303290  0.19777032  0.59661839     0.12300
C3114       C  0.79498613  0.20649482  0.68113668     0.55000
H3115       H  0.75943848  0.23842081  0.66896480     0.08100
C3116       C  0.71333951  0.24851028  0.63698813    -0.05700
C3117       C  0.69649461  0.26762843  0.63668564    -0.06500
C3118       C  0.70255620  0.29098077  0.62832986    -0.16100
C3119       C  0.72642651  0.29496776  0.61925455    -0.01700
C3120       C  0.74340617  0.27605425  0.62072151    -0.09200
C3121       C  0.70567061  0.22353412  0.64550774     0.65100
H3122       H  0.67837502  0.26437011  0.64326234     0.10500
C3123       C  0.73443215  0.31870927  0.60780162     0.63500
H3124       H  0.76191566  0.27900608  0.61514714     0.07900
F3125       F  0.79211733  0.18218948  0.68614793    -0.19600
F3126       F  0.78306322  0.21943322  0.69891976    -0.15800
F3127       F  0.81916991  0.21237714  0.68229051    -0.19300
F3128       F  0.76078587  0.25111020  0.57772057    -0.22700
F3129       F  0.73076464  0.22467250  0.58520729    -0.24200
F3130       F  0.76492297  0.21216851  0.56761455    -0.18100
F3131       F  0.75803152  0.31772528  0.59957039    -0.20600
F3132       F  0.73309618  0.33726222  0.62445060    -0.21800
F3133       F  0.71995446  0.32393200  0.58810082    -0.19000
F3134       F  0.68095255  0.22206954  0.64896382    -0.19100
F3135       F  0.71689615  0.21806886  0.66715580    -0.22900
F3136       F  0.71199294  0.20638744  0.62848395    -0.24500
C3137       C  0.74156659  0.10661703  0.77871639    -0.11300
C3138       C  0.74482385  0.12627539  0.76305696     0.11300
C3139       C  0.72821175  0.14567287  0.76324146    -0.03100
C3140       C  0.70977523  0.14561939  0.78062964    -0.05900
C3141       C  0.70701547  0.12650210  0.79716130    -0.16600
C3142       C  0.72260114  0.10614563  0.79566713     0.02300
C3143       C  0.76517564  0.12565884  0.74574801     0.12200
C3144       C  0.72973592  0.16611946  0.74488864     0.62900
H3145       H  0.69745534  0.16077800  0.78160708     0.12300
C3146       C  0.71878475  0.08364355  0.81101267     0.55000
H3147       H  0.75407975  0.09162881  0.77751375     0.08100
C3148       C  0.78831620  0.13449990  0.75174208    -0.05700
C3149       C  0.80611012  0.13520702  0.73361647    -0.06500
C3150       C  0.80146583  0.12740592  0.70978060    -0.16100
C3151       C  0.77809978  0.11795271  0.70413615    -0.01700
C3152       C  0.76060511  0.11693772  0.72252648    -0.09200
C3153       C  0.79410499  0.14304155  0.77720923     0.65100
H3154       H  0.82384868  0.14213438  0.73803883     0.10500
C3155       C  0.77088410  0.10961707  0.67892256     0.63500
H3156       H  0.74269257  0.11000094  0.71880166     0.07900
F3157       F  0.72453149  0.08837646  0.83486200    -0.19600
F3158       F  0.73311455  0.06463658  0.80332524    -0.15800
F3159       F  0.69494403  0.07628622  0.80947561    -0.19300
F3160       F  0.72647979  0.15701584  0.72185304    -0.22700
F3161       F  0.75203752  0.17725599  0.74613636    -0.24200
F3162       F  0.71219925  0.18351470  0.74880425    -0.18100
F3163       F  0.74704289  0.10211487  0.67792157    -0.20600
F3164       F  0.78507312  0.09028087  0.67192201    -0.21800
F3165       F  0.77344182  0.12847317  0.66267765    -0.19000
F3166       F  0.81750912  0.15164285  0.77906510    -0.19100
F3167       F  0.79152097  0.12402521  0.79323755    -0.22900
F3168       F  0.77860483  0.16144264  0.78389142    -0.24500
C3169       C  0.87919761  0.25012252  0.72072036    -0.11300
C3170       C  0.87661476  0.24298887  0.74483915     0.11300
C3171       C  0.87298037  0.21831633  0.75062012    -0.03100
C3172       C  0.87218467  0.20151543  0.73164062    -0.05900
C3173       C  0.87461578  0.20862811  0.70735027    -0.16600
C3174       C  0.87837485  0.23341302  0.70172632     0.02300
C3175       C  0.87601651  0.26247142  0.76294745     0.12200
C3176       C  0.86947950  0.20868498  0.77613335     0.62900
H3177       H  0.86912466  0.18259809  0.73586568     0.12300
C3178       C  0.88181224  0.24246044  0.67599790     0.55000
H3179       H  0.88150693  0.26921003  0.71690144     0.08100
C3180       C  0.89736001  0.27205593  0.77313089    -0.05700
C3181       C  0.89537052  0.29135490  0.78945655    -0.06500
C3182       C  0.87290704  0.30179050  0.79478829    -0.16100
C3183       C  0.85156654  0.29248647  0.78411344    -0.01700
C3184       C  0.85354174  0.27264768  0.76846687    -0.09200
C3185       C  0.92199332  0.26204796  0.76646878     0.65100
H3186       H  0.91139819  0.29877973  0.79787860     0.10500
C3187       C  0.82684635  0.30321950  0.78931146     0.63500
H3188       H  0.83759562  0.26512583  0.75998077     0.07900
F3189       F  0.89931114  0.22891833  0.66451383    -0.19600
F3190       F  0.88915548  0.26637425  0.67537344    -0.15800
F3191       F  0.86031994  0.24077172  0.66339964    -0.19300
F3192       F  0.84667329  0.19866399  0.77805096    -0.22700
F3193       F  0.87182304  0.22615589  0.79380287    -0.24200
F3194       F  0.88644745  0.19089182  0.78065773    -0.18100
F3195       F  0.82571555  0.32647068  0.78024229    -0.20600
F3196       F  0.82271704  0.30367523  0.81393690    -0.21800
F3197       F  0.80847589  0.28994732  0.77874193    -0.19000
F3198       F  0.94039322  0.27351227  0.77892966    -0.19100
F3199       F  0.92604581  0.26525739  0.74199894    -0.22900
F3200       F  0.92296121  0.23765793  0.77183793    -0.24500
C3201       C  0.52491932  0.64610154  0.61831830    -0.11300
C3202       C  0.51199280  0.64250964  0.63983927     0.11300
C3203       C  0.52463414  0.63816734  0.66169103    -0.03100
C3204       C  0.55004333  0.63888440  0.66144509    -0.05900
C3205       C  0.56295923  0.64386853  0.64019022    -0.16600
C3206       C  0.55034077  0.64705091  0.61811664     0.02300
C3207       C  0.48519177  0.64407382  0.63913874     0.12200
C3208       C  0.51130504  0.63312919  0.68518723     0.62900
H3209       H  0.56007361  0.63628855  0.67806968     0.12300
C3210       C  0.56366566  0.65106297  0.59446266     0.55000
H3211       H  0.51483368  0.64881532  0.60175009     0.08100
C3212       C  0.47306809  0.66655392  0.63953247    -0.05700
C3213       C  0.44769775  0.66671589  0.64020720    -0.06500
C3214       C  0.43402363  0.64525243  0.64109859    -0.16100
C3215       C  0.44636553  0.62263352  0.64039603    -0.01700
C3216       C  0.47179379  0.62260711  0.63887847    -0.09200
C3217       C  0.48689935  0.69029804  0.63970903     0.65100
H3218       H  0.43836634  0.68387971  0.64072184     0.10500
C3219       C  0.43320007  0.59853654  0.64159647     0.63500
H3220       H  0.48162740  0.60570513  0.63830089     0.07900
F3221       F  0.54811505  0.65100735  0.57485536    -0.19600
F3222       F  0.58042401  0.63283490  0.59108756    -0.15800
F3223       F  0.57537235  0.67311348  0.59489913    -0.19300
F3224       F  0.49820138  0.61197863  0.68310034    -0.22700
F3225       F  0.49571271  0.65192937  0.69039417    -0.24200
F3226       F  0.52701751  0.63054366  0.70448757    -0.18100
F3227       F  0.44870171  0.57919878  0.63822308    -0.20600
F3228       F  0.41571306  0.59744930  0.62376173    -0.21800
F3229       F  0.42258753  0.59579982  0.66408504    -0.19000
F3230       F  0.47161528  0.71004780  0.64119781    -0.19100
F3231       F  0.50024706  0.69252130  0.61870877    -0.22900
F3232       F  0.50231896  0.69101455  0.65935619    -0.24500
C3233       C  0.66054958  0.52640689  0.65825152    -0.11300
C3234       C  0.65299135  0.51498020  0.63700347     0.11300
C3235       C  0.64450242  0.52908174  0.61738314    -0.03100
C3236       C  0.64417876  0.55447251  0.61971494    -0.05900
C3237       C  0.65144352  0.56600259  0.64117048    -0.16600
C3238       C  0.66024450  0.55170061  0.66070426     0.02300
C3239       C  0.65284091  0.48808034  0.63676477     0.12200
C3240       C  0.63536566  0.51730828  0.59434486     0.62900
H3241       H  0.63764430  0.56552944  0.60494662     0.12300
C3242       C  0.67024840  0.56283533  0.68374811     0.55000
H3243       H  0.66661221  0.51514044  0.67309102     0.08100
C3244       C  0.67408479  0.47428480  0.63348746    -0.05700
C3245       C  0.67274506  0.44896710  0.63590314    -0.06500
C3246       C  0.65102165  0.43696985  0.64185798    -0.16100
C3247       C  0.62957657  0.45106118  0.64453234    -0.01700
C3248       C  0.63109095  0.47636861  0.64210254    -0.09200
C3249       C  0.69816985  0.48630049  0.62796715     0.65100
H3250       H  0.68905914  0.43841783  0.63379695     0.10500
C3251       C  0.60506060  0.43995234  0.65001424     0.63500
H3252       H  0.61525671  0.48749314  0.64494739     0.07900
F3253       F  0.68805741  0.57935727  0.67800590    -0.19600
F3254       F  0.68044944  0.54565348  0.69883961    -0.15800
F3255       F  0.65200945  0.57416168  0.69648899    -0.19300
F3256       F  0.61479671  0.50404364  0.59929348    -0.22700
F3257       F  0.65279014  0.50208932  0.58496591    -0.24200
F3258       F  0.62968128  0.53426773  0.57681896    -0.18100
F3259       F  0.58671751  0.45695426  0.64950350    -0.20600
F3260       F  0.60523434  0.42969937  0.67283763    -0.21800
F3261       F  0.59963430  0.42259513  0.63290243    -0.19000
F3262       F  0.71619152  0.46951305  0.62360366    -0.19100
F3263       F  0.70526873  0.50035464  0.64734286    -0.22900
F3264       F  0.69610349  0.50079254  0.60770062    -0.24500
C3265       C  0.64474925  0.62949424  0.52001967    -0.11300
C3266       C  0.64281622  0.65156037  0.50764922     0.11300
C3267       C  0.63958353  0.67328523  0.52074178    -0.03100
C3268       C  0.63976160  0.67229221  0.54613864    -0.05900
C3269       C  0.64304978  0.65039362  0.55850896    -0.16600
C3270       C  0.64504518  0.62854872  0.54543555     0.02300
C3271       C  0.64473583  0.65147711  0.48093351     0.12200
C3272       C  0.63610270  0.69734947  0.50791085     0.62900
H3273       H  0.63788137  0.68871659  0.55659547     0.12300
C3274       C  0.64705194  0.60443946  0.55835451     0.55000
H3275       H  0.64661003  0.61307954  0.50954983     0.08100
C3276       C  0.66742394  0.65081191  0.46912932    -0.05700
C3277       C  0.66795188  0.65164983  0.44375763    -0.06500
C3278       C  0.64670719  0.65367667  0.43011521    -0.16100
C3279       C  0.62400587  0.65408944  0.44188922    -0.01700
C3280       C  0.62342491  0.65257780  0.46727887    -0.09200
C3281       C  0.69094192  0.64961639  0.48326436     0.65100
H3282       H  0.68509108  0.65122959  0.43428555     0.10500
C3283       C  0.60059769  0.65569169  0.42771955     0.63500
H3284       H  0.60631054  0.65270075  0.47678956     0.07900
F3285       F  0.66878509  0.60314271  0.57058440    -0.19600
F3286       F  0.64594712  0.58522491  0.54239336    -0.15800
F3287       F  0.62825388  0.60206267  0.57466697    -0.19300
F3288       F  0.61496549  0.69684234  0.49462699    -0.22700
F3289       F  0.65527353  0.70180656  0.49251596    -0.24200
F3290       F  0.63459577  0.71637202  0.52406991    -0.18100
F3291       F  0.58056711  0.65426292  0.44264737    -0.20600
F3292       F  0.59939148  0.63690303  0.41129796    -0.21800
F3293       F  0.59956833  0.67746663  0.41549118    -0.19000
F3294       F  0.71089754  0.65001285  0.46817185    -0.19100
F3295       F  0.69180220  0.62852470  0.49664110    -0.22900
F3296       F  0.69259990  0.66915475  0.49872340    -0.24500
C3297       C  0.86519608  0.53118615  0.87205305    -0.11300
C3298       C  0.86379426  0.51735208  0.85094563     0.11300
C3299       C  0.86062271  0.52882429  0.82830851    -0.03100
C3300       C  0.85861342  0.55411066  0.82767270    -0.05900
C3301       C  0.85905662  0.56814350  0.84888414    -0.16600
C3302       C  0.86296940  0.55650460  0.87154025     0.02300
C3303       C  0.86243324  0.49077194  0.85343441     0.12200
C3304       C  0.85877509  0.51436332  0.80499076     0.62900
H3305       H  0.85580386  0.56304699  0.81048822     0.12300
C3306       C  0.86463737  0.57033936  0.89519718     0.55000
H3307       H  0.86715519  0.52178694  0.88913045     0.08100
C3308       C  0.88309668  0.47591247  0.85459011    -0.05700
C3309       C  0.87987847  0.45069493  0.85481041    -0.06500
C3310       C  0.85673796  0.44004311  0.85475904    -0.16100
C3311       C  0.83599152  0.45536084  0.85554286    -0.01700
C3312       C  0.83942618  0.48049271  0.85479289    -0.09200
C3313       C  0.90827710  0.48670772  0.85606799     0.65100
H3314       H  0.89558582  0.43907893  0.85508435     0.10500
C3315       C  0.81023459  0.44577554  0.85663733     0.63500
H3316       H  0.82403136  0.49259159  0.85473606     0.07900
F3317       F  0.87234795  0.55576830  0.91405276    -0.19600
F3318       F  0.84219393  0.57943527  0.90126708    -0.15800
F3319       F  0.88097099  0.58907442  0.89297436    -0.19300
F3320       F  0.83903027  0.49911377  0.80591829    -0.22700
F3321       F  0.87941233  0.50071323  0.80176541    -0.24200
F3322       F  0.85612412  0.52916488  0.78496102    -0.18100
F3323       F  0.80697511  0.43259515  0.87766382    -0.20600
F3324       F  0.80561468  0.43141129  0.83671096    -0.21800
F3325       F  0.79330215  0.46419575  0.85668945    -0.19000
F3326       F  0.92596458  0.46903959  0.85658651    -0.19100
F3327       F  0.91029845  0.50027839  0.87693999    -0.22900
F3328       F  0.91260625  0.50143974  0.83635094    -0.24500
C3329       C  0.97396533  0.62966833  0.86224324    -0.11300
C3330       C  0.98821658  0.64723577  0.85081112     0.11300
C3331       C  0.97715340  0.66539478  0.83658431    -0.03100
C3332       C  0.95181152  0.66638265  0.83573371    -0.05900
C3333       C  0.93745165  0.64876538  0.84699710    -0.16600
C3334       C  0.94860397  0.62989517  0.86028022     0.02300
C3335       C  0.01483600  0.64540994  0.85275157     0.12200
C3336       C  0.99206201  0.68279798  0.82136764     0.62900
H3337       H  0.94297496  0.68052810  0.82555724     0.12300
C3338       C  0.93378362  0.61060024  0.87291010     0.55000
H3339       H  0.98295941  0.61563008  0.87250567     0.08100
C3340       C  0.02809601  0.65812644  0.87044523    -0.05700
C3341       C  0.05346257  0.65828816  0.86880717    -0.06500
C3342       C  0.06585941  0.64518373  0.85079654    -0.16100
C3343       C  0.05228445  0.62987155  0.83510991    -0.01700
C3344       C  0.02692480  0.63080879  0.83608855    -0.09200
C3345       C  0.01543936  0.67110299  0.89107623     0.65100
H3346       H  0.06373748  0.66908786  0.88146836     0.10500
C3347       C  0.06400702  0.61218729  0.81766264     0.63500
H3348       H  0.01617105  0.62047387  0.82340432     0.07900
F3349       F  0.94806818  0.59517662  0.88649147    -0.19600
F3350       F  0.92158809  0.59684696  0.85599426    -0.15800
F3351       F  0.91736064  0.62147116  0.88827239    -0.19300
F3352       F  0.00526114  0.66990548  0.80452855    -0.22700
F3353       F  0.00779047  0.69576695  0.83574429    -0.24200
F3354       F  0.97766495  0.69912669  0.80901881    -0.18100
F3355       F  0.04736086  0.59615096  0.80809711    -0.20600
F3356       F  0.08131013  0.59868666  0.82963191    -0.21800
F3357       F  0.07446799  0.62453682  0.79860843    -0.19000
F3358       F  0.03174765  0.68124884  0.90709575    -0.19100
F3359       F  0.00131314  0.65483462  0.90375818    -0.22900
F3360       F  0.00084504  0.68933630  0.88225003    -0.24500
C3361       C  0.87461655  0.65918795  0.96857094    -0.11300
C3362       C  0.85971006  0.64196660  0.97962341     0.11300
C3363       C  0.84465251  0.62718173  0.96524049    -0.03100
C3364       C  0.84523451  0.63008865  0.93998844    -0.05900
C3365       C  0.85979130  0.64767290  0.92871667    -0.16600
C3366       C  0.87497232  0.66246117  0.94330525     0.02300
C3367       C  0.85824201  0.64187809  0.00642508     0.12200
C3368       C  0.82750783  0.60892460  0.97656266     0.62900
H3369       H  0.83364497  0.61898617  0.92882744     0.12300
C3370       C  0.89070043  0.68234522  0.93269936     0.55000
H3371       H  0.88550476  0.67060718  0.98013891     0.08100
C3372       C  0.87543207  0.63002099  0.02125979    -0.05700
C3373       C  0.87265336  0.63115840  0.04658340    -0.06500
C3374       C  0.85380563  0.64438269  0.05713795    -0.16100
C3375       C  0.83690497  0.65655162  0.04224959    -0.01700
C3376       C  0.83948881  0.65510113  0.01705537    -0.09200
C3377       C  0.89687020  0.61686619  0.01037262     0.65100
H3378       H  0.88556240  0.62231049  0.05838446     0.10500
C3379       C  0.81603686  0.67072634  0.05295861     0.63500
H3380       H  0.82688945  0.66443997  0.00529560     0.07900
F3381       F  0.90219416  0.69567389  0.95047475    -0.19600
F3382       F  0.87665135  0.69811399  0.91929445    -0.15800
F3383       F  0.90835284  0.67232296  0.91813239    -0.19300
F3384       F  0.81045355  0.62074372  0.99044797    -0.22700
F3385       F  0.84022749  0.59305402  0.99107208    -0.24200
F3386       F  0.81538197  0.59555151  0.95924937    -0.18100
F3387       F  0.82478276  0.68975297  0.06654882    -0.20600
F3388       F  0.80238122  0.65567472  0.06749121    -0.21800
F3389       F  0.80103075  0.68014742  0.03527398    -0.19000
F3390       F  0.91085788  0.60578994  0.02793323    -0.19100
F3391       F  0.91130565  0.63310892  0.99803137    -0.22900
F3392       F  0.88899407  0.59929362  0.99449072    -0.24500
C3393       C  0.76607538  0.61455151  0.76480401    -0.11300
C3394       C  0.76236253  0.63549226  0.75100131     0.11300
C3395       C  0.77679701  0.65618391  0.75518450    -0.03100
C3396       C  0.79502756  0.65492012  0.77286629    -0.05900
C3397       C  0.79874596  0.63399431  0.78683658    -0.16600
C3398       C  0.78412253  0.61333980  0.78270438     0.02300
C3399       C  0.74234286  0.63550186  0.73312089     0.12200
C3400       C  0.77274369  0.67955793  0.74127338     0.62900
H3401       H  0.80623418  0.67058440  0.77635905     0.12300
C3402       C  0.78783695  0.58993679  0.79658691     0.55000
H3403       H  0.75445677  0.59914956  0.76152014     0.08100
C3404       C  0.74476059  0.62514249  0.70992097    -0.05700
C3405       C  0.72480067  0.62561234  0.69419221    -0.06500
C3406       C  0.70251034  0.63606871  0.70081837    -0.16100
C3407       C  0.70031836  0.64658514  0.72431087    -0.01700
C3408       C  0.72027897  0.64564671  0.74006731    -0.09200
C3409       C  0.76828552  0.61347477  0.70190376     0.65100
H3410       H  0.72661326  0.61765566  0.67642474     0.10500
C3411       C  0.67747699  0.65915461  0.73302042     0.63500
H3412       H  0.71898908  0.65308638  0.75812734     0.07900
F3413       F  0.77385507  0.57134455  0.78740338    -0.19600
F3414       F  0.78151369  0.59313526  0.82055127    -0.15800
F3415       F  0.81177806  0.58294485  0.79514402    -0.19300
F3416       F  0.74998645  0.68853887  0.74623336    -0.22700
F3417       F  0.77468141  0.67540165  0.71671783    -0.24200
F3418       F  0.78944607  0.69711955  0.74745657    -0.18100
F3419       F  0.67998188  0.66836457  0.75615545    -0.20600
F3420       F  0.65844473  0.64296649  0.73344106    -0.21800
F3421       F  0.67211517  0.67832191  0.71787882    -0.19000
F3422       F  0.76727786  0.60576831  0.67811443    -0.19100
F3423       F  0.77318138  0.59362946  0.71628607    -0.22900
F3424       F  0.78706779  0.62980351  0.70386735    -0.24500
C3425       C  0.52716830  0.88159669  0.85273729    -0.11300
C3426       C  0.51390547  0.86058311  0.84786766     0.11300
C3427       C  0.52614529  0.83907088  0.84153964    -0.03100
C3428       C  0.55150525  0.83884265  0.84217374    -0.05900
C3429       C  0.56501029  0.85977955  0.84713150    -0.16600
C3430       C  0.55263470  0.88182211  0.85184565     0.02300
C3431       C  0.48710727  0.86188963  0.84799783     0.12200
C3432       C  0.51248732  0.81674672  0.83319963     0.62900
H3433       H  0.56107569  0.82236676  0.83771713     0.12300
C3434       C  0.56592466  0.90554678  0.85554453     0.55000
H3435       H  0.51726492  0.89802929  0.85659693     0.08100
C3436       C  0.47339576  0.85815031  0.86920622    -0.05700
C3437       C  0.44804809  0.85735205  0.86738061    -0.06500
C3438       C  0.43598141  0.86021679  0.84509072    -0.16100
C3439       C  0.45003408  0.86521785  0.82394576    -0.01700
C3440       C  0.47536268  0.86617442  0.82604512    -0.09200
C3441       C  0.48558117  0.85493974  0.89360600     0.65100
H3442       H  0.43746965  0.85411908  0.88352123     0.10500
C3443       C  0.43896353  0.86896774  0.79901791     0.63500
H3444       H  0.48649036  0.86954251  0.81028811     0.07900
F3445       F  0.58334957  0.90296123  0.87322073    -0.19600
F3446       F  0.55048134  0.92389847  0.86264706    -0.15800
F3447       F  0.57674799  0.91255680  0.83411715    -0.19300
F3448       F  0.50006785  0.82193129  0.81213269    -0.22700
F3449       F  0.49623735  0.80947992  0.85072349    -0.24200
F3450       F  0.52786030  0.79758918  0.82849475    -0.18100
F3451       F  0.42372791  0.88877709  0.79936815    -0.20600
F3452       F  0.42630261  0.84853017  0.79218344    -0.21800
F3453       F  0.45630998  0.87323202  0.78147438    -0.19000
F3454       F  0.46897631  0.85138243  0.91199272    -0.19100
F3455       F  0.49889708  0.87535329  0.89904314    -0.22900
F3456       F  0.50082250  0.83516576  0.89305399    -0.24500
C3457       C  0.65586413  0.97936320  0.83258636    -0.11300
C3458       C  0.64959675  0.98888538  0.85517773     0.11300
C3459       C  0.64293031  0.97320447  0.87424524    -0.03100
C3460       C  0.64329567  0.94813649  0.87007521    -0.05900
C3461       C  0.64983916  0.93844315  0.84749935    -0.16600
C3462       C  0.65646696  0.95431712  0.82838536     0.02300
C3463       C  0.64985520  0.01550690  0.85799376     0.12200
C3464       C  0.63539392  0.98295006  0.89878866     0.62900
H3465       H  0.63830303  0.93581647  0.88448402     0.12300
C3466       C  0.66510023  0.94509792  0.80398687     0.55000
H3467       H  0.66054110  0.99189168  0.81824993     0.08100
C3468       C  0.67161853  0.02849740  0.86150784    -0.05700
C3469       C  0.67060416  0.05382980  0.86242056    -0.06500
C3470       C  0.64878041  0.06631007  0.85941585    -0.16100
C3471       C  0.62694805  0.05336704  0.85672384    -0.01700
C3472       C  0.62789932  0.02798983  0.85581706    -0.09200
C3473       C  0.69585946  0.01577271  0.86358393     0.65100
H3474       H  0.68706627  0.06421533  0.86442668     0.10500
C3475       C  0.60282901  0.06630534  0.85563442     0.63500
H3476       H  0.61153226  0.01764047  0.85306238     0.07900
F3477       F  0.67330287  0.96365472  0.78930445    -0.19600
F3478       F  0.64634299  0.93372018  0.79206867    -0.15800
F3479       F  0.68397907  0.92904313  0.80720227    -0.19300
F3480       F  0.61445374  0.99634091  0.89645155    -0.22700
F3481       F  0.65337660  0.99753356  0.90813205    -0.24200
F3482       F  0.63105370  0.96456175  0.91522342    -0.18100
F3483       F  0.60159449  0.08049822  0.83509345    -0.20600
F3484       F  0.60028718  0.08076607  0.87586050    -0.21800
F3485       F  0.58367639  0.05022762  0.85513914    -0.19000
F3486       F  0.71437318  0.03180517  0.86868788    -0.19100
F3487       F  0.70129347  0.00436830  0.84204632    -0.22900
F3488       F  0.69512414  0.99878825  0.88191063    -0.24500
C3489       C  0.62722640  0.86441074  0.96825369    -0.11300
C3490       C  0.64873847  0.86001236  0.98077642     0.11300
C3491       C  0.67003956  0.85417598  0.96800502    -0.03100
C3492       C  0.66929462  0.85401027  0.94266324    -0.05900
C3493       C  0.64772314  0.85811020  0.92984657    -0.16600
C3494       C  0.62614867  0.86320604  0.94286903     0.02300
C3495       C  0.64801981  0.85949963  0.00743261     0.12200
C3496       C  0.69312599  0.84702791  0.98112487     0.62900
H3497       H  0.68548910  0.84954001  0.93265130     0.12300
C3498       C  0.60213761  0.86752396  0.93033603     0.55000
H3499       H  0.61110821  0.86816234  0.97869152     0.08100
C3500       C  0.65206889  0.88037443  0.02158052    -0.05700
C3501       C  0.65345280  0.87777003  0.04683078    -0.06500
C3502       C  0.65020842  0.85519474  0.05794185    -0.16100
C3503       C  0.64525470  0.83449976  0.04372885    -0.01700
C3504       C  0.64403288  0.83713743  0.01855567    -0.09200
C3505       C  0.65462277  0.90515443  0.01001449     0.65100
H3506       H  0.65699736  0.89334443  0.05814726     0.10500
C3507       C  0.64253936  0.80955770  0.05490436     0.63500
H3508       H  0.64064260  0.82158381  0.00716349     0.07900
F3509       F  0.58440180  0.87489553  0.94636998    -0.19600
F3510       F  0.59425713  0.84642653  0.91952732    -0.15800
F3511       F  0.60478199  0.88538346  0.91306706    -0.19300
F3512       F  0.68934747  0.82584724  0.99385977    -0.22700
F3513       F  0.69998353  0.86494586  0.99708560    -0.24200
F3514       F  0.71206647  0.84321439  0.96524129    -0.18100
F3515       F  0.62232875  0.80888491  0.06954318    -0.20600
F3516       F  0.66277320  0.80416879  0.06849178    -0.21800
F3517       F  0.64003165  0.79175457  0.03752169    -0.19000
F3518       F  0.65874460  0.92297430  0.02707455    -0.19100
F3519       F  0.63363166  0.91085347  0.99773043    -0.22900
F3520       F  0.67369895  0.90530807  0.99389983    -0.24500
C3521       C  0.64161530  0.75678940  0.77418046    -0.11300
C3522       C  0.62702540  0.76157607  0.75411754     0.11300
C3523       C  0.61278147  0.78273995  0.75351106    -0.03100
C3524       C  0.61429464  0.79900889  0.77297761    -0.05900
C3525       C  0.62945079  0.79474234  0.79302022    -0.16600
C3526       C  0.64344902  0.77303572  0.79363727     0.02300
C3527       C  0.62705461  0.74380549  0.73406283     0.12200
C3528       C  0.59601811  0.78800743  0.73239788     0.62900
H3529       H  0.60351593  0.81532533  0.77258654     0.12300
C3530       C  0.66080857  0.76691986  0.81411017     0.55000
H3531       H  0.65191212  0.74014023  0.77419956     0.08100
C3532       C  0.64566295  0.74328245  0.71654962    -0.05700
C3533       C  0.64477955  0.72555160  0.69840598    -0.06500
C3534       C  0.62627038  0.70812244  0.69752733    -0.16100
C3535       C  0.60759477  0.70876173  0.71517550    -0.01700
C3536       C  0.60850075  0.72661713  0.73326578    -0.09200
C3537       C  0.66654752  0.76113171  0.71725665     0.65100
H3538       H  0.65907506  0.72476515  0.68505701     0.10500
C3539       C  0.58652507  0.69116431  0.71486432     0.63500
H3540       H  0.59476142  0.72723788  0.74719906     0.07900
F3541       F  0.67768662  0.78515526  0.81657741    -0.19600
F3542       F  0.67333266  0.74567961  0.80988778    -0.15800
F3543       F  0.64816877  0.76400505  0.83549467    -0.19300
F3544       F  0.57832677  0.77043306  0.73115486    -0.22700
F3545       F  0.60890330  0.78815071  0.71098655    -0.24200
F3546       F  0.58473216  0.81020505  0.73472538    -0.18100
F3547       F  0.56887344  0.69745618  0.73144034    -0.20600
F3548       F  0.59452800  0.66820499  0.72065204    -0.21800
F3549       F  0.57596531  0.69096269  0.69218690    -0.19000
F3550       F  0.68187231  0.75838807  0.69765896    -0.19100
F3551       F  0.67993290  0.75764985  0.73806659    -0.22900
F3552       F  0.65785749  0.78454272  0.71696052    -0.24500
C3553       C  0.74470631  0.77948380  0.85262417    -0.11300
C3554       C  0.74057220  0.76081060  0.86912529     0.11300
C3555       C  0.72055601  0.76194857  0.88490526    -0.03100
C3556       C  0.70418259  0.78125705  0.88238860    -0.05900
C3557       C  0.70766047  0.79973675  0.86515989    -0.16600
C3558       C  0.72872031  0.79904889  0.85019320     0.02300
C3559       C  0.75788931  0.74039308  0.86918956     0.12200
C3560       C  0.71675588  0.74299856  0.90443322     0.62900
H3561       H  0.68855210  0.78210532  0.89410725     0.12300
C3562       C  0.73452471  0.81828208  0.83131864     0.55000
H3563       H  0.76065319  0.77830230  0.84134260     0.08100
C3564       C  0.75669600  0.72183996  0.85168483    -0.05700
C3565       C  0.77507158  0.70435487  0.85122273    -0.06500
C3566       C  0.79468667  0.70499327  0.86741006    -0.16100
C3567       C  0.79543664  0.72337781  0.88543042    -0.01700
C3568       C  0.77701632  0.74091429  0.88572757    -0.09200
C3569       C  0.73638109  0.72085479  0.83320041     0.65100
H3570       H  0.77458918  0.69039038  0.83753461     0.10500
C3571       C  0.81522755  0.72468069  0.90446116     0.63500
H3572       H  0.77762909  0.75562995  0.89861058     0.07900
F3573       F  0.71571780  0.82015450  0.81498644    -0.19600
F3574       F  0.75518646  0.81286168  0.81829430    -0.15800
F3575       F  0.73837129  0.84030063  0.84248957    -0.19300
F3576       F  0.73603102  0.74329776  0.92031802    -0.22700
F3577       F  0.71503844  0.72030799  0.89416887    -0.24200
F3578       F  0.69589580  0.74718121  0.91758022    -0.18100
F3579       F  0.83693024  0.73086667  0.89373226    -0.20600
F3580       F  0.81745507  0.70259373  0.91601284    -0.21800
F3581       F  0.81025349  0.74186036  0.92195414    -0.19000
F3582       F  0.73774772  0.70037549  0.81890757    -0.19100
F3583       F  0.73753444  0.74080108  0.81817894    -0.22900
F3584       F  0.71428301  0.72064859  0.84482370    -0.24500
C3585       C  0.84958200  0.87157070  0.51369850    -0.11300
C3586       C  0.85968056  0.85113196  0.50270828     0.11300
C3587       C  0.86944522  0.83245300  0.51719584    -0.03100
C3588       C  0.86726454  0.83422356  0.54249902    -0.05900
C3589       C  0.85606806  0.85417685  0.55359745    -0.16600
C3590       C  0.84766218  0.87352696  0.53899495     0.02300
C3591       C  0.85964227  0.84998603  0.47589150     0.12200
C3592       C  0.88231071  0.81095051  0.50596777     0.62900
H3593       H  0.87398082  0.81975376  0.55384882     0.12300
C3594       C  0.83733395  0.89641595  0.54993971     0.55000
H3595       H  0.84281255  0.88586939  0.50215629     0.08100
C3596       C  0.83929602  0.84159630  0.46287857    -0.05700
C3597       C  0.84010191  0.84185368  0.43746897    -0.06500
C3598       C  0.86030076  0.85057417  0.42480879    -0.16100
C3599       C  0.88050238  0.85941609  0.43787983    -0.01700
C3600       C  0.87979310  0.85888260  0.46335041    -0.09200
C3601       C  0.81657906  0.83305935  0.47576991     0.65100
H3602       H  0.82478705  0.83532655  0.42719218     0.10500
C3603       C  0.90217597  0.87038522  0.42510992     0.63500
H3604       H  0.89489521  0.86565563  0.47377589     0.07900
F3605       F  0.81514723  0.89158443  0.56033055    -0.19600
F3606       F  0.83407080  0.91432159  0.53273655    -0.15800
F3607       F  0.85300849  0.90523225  0.56729274    -0.19300
F3608       F  0.90231781  0.81887622  0.49328229    -0.22700
F3609       F  0.86706979  0.79890718  0.49029803    -0.24200
F3610       F  0.89004191  0.79461651  0.52330623    -0.18100
F3611       F  0.91818370  0.88080510  0.44125867    -0.20600
F3612       F  0.89451751  0.88818611  0.40928989    -0.21800
F3613       F  0.91446403  0.85272864  0.41242800    -0.19000
F3614       F  0.79940233  0.82456768  0.45969258    -0.19100
F3615       F  0.80654003  0.85203554  0.48850757    -0.22900
F3616       F  0.82199332  0.81457404  0.49168849    -0.24500
C3617       C  0.97299058  0.86871124  0.65457195    -0.11300
C3618       C  0.98468042  0.85935871  0.63420020     0.11300
C3619       C  0.97101599  0.84924192  0.61510879    -0.03100
C3620       C  0.94570437  0.84883598  0.61720715    -0.05900
C3621       C  0.93393889  0.85813630  0.63767631    -0.16600
C3622       C  0.94774446  0.86845354  0.65670357     0.02300
C3623       C  0.01130204  0.85760393  0.63520160     0.12200
C3624       C  0.98312649  0.83860497  0.59288069     0.62900
H3625       H  0.93484339  0.84096323  0.60295157     0.12300
C3626       C  0.93617749  0.87822548  0.67964663     0.55000
H3627       H  0.98401612  0.87576091  0.66913324     0.08100
C3628       C  0.02659256  0.87757286  0.63065444    -0.05700
C3629       C  0.05161357  0.87465908  0.63397677    -0.06500
C3630       C  0.06148099  0.85269926  0.64212126    -0.16100
C3631       C  0.04594250  0.83293002  0.64731078    -0.01700
C3632       C  0.02104555  0.83582999  0.64362323    -0.09200
C3633       C  0.01648296  0.90188553  0.62283482     0.65100
H3634       H  0.06371386  0.88963055  0.63042090     0.10500
C3635       C  0.05522083  0.80921720  0.65771226     0.63500
H3636       H  0.00874261  0.82114956  0.64768544     0.07900
F3637       F  0.95324916  0.88443185  0.69685213    -0.19600
F3638       F  0.92121723  0.86092135  0.68974729    -0.15800
F3639       F  0.92292592  0.89873241  0.67432797    -0.19300
F3640       F  0.99746634  0.81923724  0.59943339    -0.22700
F3641       F  0.99733587  0.85590007  0.58180372    -0.24200
F3642       F  0.96640188  0.83051978  0.57612944    -0.18100
F3643       F  0.06929364  0.81366624  0.67788914    -0.20600
F3644       F  0.06873620  0.79712560  0.64054037    -0.21800
F3645       F  0.03654549  0.79411114  0.66472685    -0.19000
F3646       F  0.03461305  0.91856485  0.61847967    -0.19100
F3647       F  0.00171052  0.91106297  0.64075314    -0.22900
F3648       F  0.00319605  0.89931988  0.60185303    -0.24500
C3649       C  0.83928359  0.97841960  0.62805831    -0.11300
C3650       C  0.86036878  0.98831948  0.63792966     0.11300
C3651       C  0.87876050  0.97283722  0.64670764    -0.03100
C3652       C  0.87516446  0.94770134  0.64550117    -0.05900
C3653       C  0.85400686  0.93774030  0.63566933    -0.16600
C3654       C  0.83586245  0.95330895  0.62636083     0.02300
C3655       C  0.86152156  0.01495848  0.64082559     0.12200
C3656       C  0.90187472  0.98280216  0.65764859     0.62900
H3657       H  0.88875463  0.93554323  0.65263064     0.12300
C3658       C  0.81260452  0.94365998  0.61550118     0.55000
H3659       H  0.82526775  0.99068046  0.62203730     0.08100
C3660       C  0.86555881  0.03084904  0.62117502    -0.05700
C3661       C  0.86493658  0.05591734  0.62542265    -0.06500
C3662       C  0.86066988  0.06548630  0.64860156    -0.16100
C3663       C  0.85708422  0.04932417  0.66839463    -0.01700
C3664       C  0.85709431  0.02434499  0.66386818    -0.09200
C3665       C  0.87045895  0.02138295  0.59587297     0.65100
H3666       H  0.86767077  0.06832162  0.61050579     0.10500
C3667       C  0.85273658  0.05794933  0.69415797     0.63500
H3668       H  0.85350486  0.01169088  0.67839011     0.07900
F3669       F  0.79653426  0.96198949  0.60986882    -0.19600
F3670       F  0.80139459  0.92834238  0.63169061    -0.15800
F3671       F  0.81764762  0.93123295  0.59446871    -0.19300
F3672       F  0.89681290  0.99451633  0.67910904    -0.22700
F3673       F  0.91252357  0.99893748  0.64179492    -0.24200
F3674       F  0.91841487  0.96467544  0.66252645    -0.18100
F3675       F  0.83294577  0.07316614  0.69485008    -0.20600
F3676       F  0.87296603  0.06995079  0.70257131    -0.21800
F3677       F  0.84823761  0.03896540  0.70987176    -0.19000
F3678       F  0.87558693  0.03988663  0.57979344    -0.19100
F3679       F  0.85047847  0.00913285  0.58730514    -0.22900
F3680       F  0.89001190  0.00585443  0.59630681    -0.24500
C3681       C  0.77141703  0.76535364  0.60141673    -0.11300
C3682       C  0.75404842  0.76604342  0.61983862     0.11300
C3683       C  0.75508362  0.78422312  0.63771902    -0.03100
C3684       C  0.77350294  0.80153106  0.63624537    -0.05900
C3685       C  0.79135841  0.80072304  0.61812996    -0.16600
C3686       C  0.79023389  0.78240911  0.60017050     0.02300
C3687       C  0.73600670  0.74637854  0.62093707     0.12200
C3688       C  0.73735311  0.78488580  0.65873752     0.62900
H3689       H  0.77462040  0.81540591  0.65000618     0.12300
C3690       C  0.80847692  0.78076379  0.57970514     0.55000
H3691       H  0.77036071  0.75088257  0.58827246     0.08100
C3692       C  0.71498503  0.74631602  0.60647567    -0.05700
C3693       C  0.69900219  0.72666869  0.60843888    -0.06500
C3694       C  0.70319372  0.70746440  0.62466818    -0.16100
C3695       C  0.72403675  0.70820659  0.63982984    -0.01700
C3696       C  0.74037960  0.72739667  0.63702777    -0.09200
C3697       C  0.70951333  0.76691950  0.58912514     0.65100
H3698       H  0.68305947  0.72617586  0.59710201     0.10500
C3699       C  0.72890334  0.68965846  0.65959218     0.63500
H3700       H  0.75678185  0.72800195  0.64771180     0.07900
F3701       F  0.81029102  0.80282353  0.56803161    -0.19600
F3702       F  0.80186523  0.76368297  0.56266998    -0.15800
F3703       F  0.83079350  0.77419654  0.58881645    -0.19300
F3704       F  0.74109781  0.76513164  0.67358719    -0.22700
F3705       F  0.71387509  0.78439171  0.65027032    -0.24200
F3706       F  0.74007322  0.80553558  0.67259136    -0.18100
F3707       F  0.74830184  0.69614199  0.67399383    -0.20600
F3708       F  0.73417822  0.66746107  0.64942606    -0.21800
F3709       F  0.70890906  0.68770383  0.67447170    -0.19000
F3710       F  0.68732333  0.76406269  0.57794584    -0.19100
F3711       F  0.72705055  0.76796009  0.57137277    -0.22900
F3712       F  0.70914144  0.78862126  0.60147293    -0.24500
C3713       C  0.84773808  0.76122011  0.71475078    -0.11300
C3714       C  0.86478969  0.76369456  0.73323673     0.11300
C3715       C  0.88189438  0.78264083  0.73231512    -0.03100
C3716       C  0.88161717  0.79837519  0.71236623    -0.05900
C3717       C  0.86466978  0.79595010  0.69356685    -0.16600
C3718       C  0.84686994  0.77737441  0.69511856     0.02300
C3719       C  0.86517644  0.74533746  0.75273956     0.12200
C3720       C  0.90034288  0.78620403  0.75235622     0.62900
H3721       H  0.89492717  0.81266889  0.71124904     0.12300
C3722       C  0.82647309  0.77485777  0.67686747     0.55000
H3723       H  0.83507818  0.74633276  0.71585327     0.08100
C3724       C  0.84872118  0.74566902  0.77226687    -0.05700
C3725       C  0.85109494  0.72807974  0.79048064    -0.06500
C3726       C  0.86899753  0.70999940  0.78949114    -0.16100
C3727       C  0.88517307  0.70954027  0.76943515    -0.01700
C3728       C  0.88269342  0.72720759  0.75134828    -0.09200
C3729       C  0.82849956  0.76418952  0.77359107     0.65100
H3730       H  0.83847505  0.72802900  0.80544217     0.10500
C3731       C  0.90533366  0.69104672  0.76697788     0.63500
H3732       H  0.89459784  0.72718002  0.73579841     0.07900
F3733       F  0.80960559  0.75778160  0.68396710    -0.19600
F3734       F  0.83559174  0.76777266  0.65470101    -0.15800
F3735       F  0.81455497  0.79669370  0.67452324    -0.19300
F3736       F  0.91608533  0.76683887  0.75302207    -0.22700
F3737       F  0.88872734  0.78803446  0.77441403    -0.24200
F3738       F  0.91382915  0.80700291  0.74898674    -0.18100
F3739       F  0.92048735  0.69617880  0.74771892    -0.20600
F3740       F  0.89566343  0.66833398  0.76313188    -0.21800
F3741       F  0.91927068  0.69092604  0.78770081    -0.19000
F3742       F  0.81580698  0.76260642  0.79511182    -0.19100
F3743       F  0.81243298  0.76039199  0.75485311    -0.22900
F3744       F  0.83781908  0.78730042  0.77179443    -0.24500
C3745       C  0.76231447  0.88681896  0.71891702    -0.11300
C3746       C  0.76162268  0.86661900  0.73417214     0.11300
C3747       C  0.77735416  0.84694398  0.73002741    -0.03100
C3748       C  0.79440422  0.84889394  0.71130178    -0.05900
C3749       C  0.79539678  0.86927477  0.69603092    -0.16600
C3750       C  0.77876621  0.88844494  0.69962770     0.02300
C3751       C  0.74272703  0.86606747  0.75306854     0.12200
C3752       C  0.77575239  0.82383405  0.74486750     0.62900
H3753       H  0.80686989  0.83415932  0.70810763     0.12300
C3754       C  0.77820501  0.91049375  0.68336470     0.55000
H3755       H  0.74943360  0.90120158  0.72209413     0.08100
C3756       C  0.74577677  0.87737642  0.77572297    -0.05700
C3757       C  0.72624924  0.87755287  0.79196494    -0.06500
C3758       C  0.70369419  0.86725046  0.78610980    -0.16100
C3759       C  0.70086302  0.85581961  0.76309107    -0.01700
C3760       C  0.72056687  0.85563576  0.74706274    -0.09200
C3761       C  0.76929773  0.88988289  0.78235797     0.65100
H3762       H  0.72849504  0.88618165  0.80936847     0.10500
C3763       C  0.67750846  0.84376915  0.75497065     0.63500
H3764       H  0.71886058  0.84750799  0.72933217     0.07900
F3765       F  0.76218302  0.92783427  0.69161176    -0.19600
F3766       F  0.77091272  0.90366782  0.66046360    -0.15800
F3767       F  0.80089641  0.92090947  0.68234225    -0.19300
F3768       F  0.75334053  0.81330898  0.74168192    -0.22700
F3769       F  0.77897260  0.82881187  0.76912241    -0.24200
F3770       F  0.79312187  0.80717967  0.73805144    -0.18100
F3771       F  0.67931249  0.83417731  0.73192252    -0.20600
F3772       F  0.65894693  0.86050195  0.75461271    -0.21800
F3773       F  0.67186507  0.82497032  0.77046516    -0.19000
F3774       F  0.76907850  0.89826346  0.80593555    -0.19100
F3775       F  0.77297895  0.90938587  0.76716126    -0.22900
F3776       F  0.78847578  0.87408283  0.78005750    -0.24500
loop_ 
_geom_bond_atom_site_label_1 
_geom_bond_atom_site_label_2 
_geom_bond_distance 
_geom_bond_site_symmetry_2 
_ccdc_geom_bond_type 
O1          Cr19   1.970       .  S
O1            C9   1.260       .  A
O2          Cr19   2.019       .  S
O2            C3   1.270       .  A
C3            O4   1.257       .  A
C3         C3621   1.477       .  S
O4          Cr20   1.962       .  S
O5          Cr20   2.010       .  S
O5            C6   1.267       .  A
C6            O7   1.258       .  A
C6         C3653   1.481       .  S
O7          Cr21   1.974       .  S
O8          Cr21   2.020       .  S
O8            C9   1.269       .  A
C9         C3589   1.486       .  S
O10         Cr19   2.012       .  S
O10          C18   1.265       .  A
O11         Cr19   1.971       .  S
O11          C12   1.255       .  A
C12          O13   1.265       .  A
C12        C3717   1.489       .  S
O13         Cr20   2.007       .  S
O14         Cr20   1.960       .  S
O14          C15   1.256       .  A
C15          O16   1.269       .  A
C15        C3749   1.485       .  S
O16         Cr21   2.022       .  S
O17         Cr21   1.961       .  S
O17          C18   1.257       .  A
C18        C3685   1.485       .  S
Cr19         O22   1.769       .  S
Cr20         O22   1.767       .  S
Cr21         O22   1.766       .  S
O23         Cr41   1.968       .  S
O23          C31   1.259       .  A
O24         Cr41   2.007       .  S
O24          C25   1.268       .  A
C25          O26   1.258       .  A
C25        C3493   1.485       .  S
O26         Cr42   1.972       .  S
O27         Cr42   2.018       .  S
O27          C28   1.271       .  A
C28          O29   1.259       .  A
C28        C3429   1.489       .  S
O29         Cr43   1.975       .  S
O30         Cr43   2.018       .  S
O30          C31   1.268       .  A
C31        C3461   1.484       .  S
O32         Cr41   2.013       .  S
O32          C40   1.268       .  A
O33         Cr41   1.959       .  S
O33          C34   1.253       .  A
C34          O35   1.270       .  A
C34        C3557   1.494       .  S
O35         Cr42   2.023       .  S
O36         Cr42   1.966       .  S
O36          C37   1.255       .  A
C37          O38   1.268       .  A
C37        C3525   1.496       .  S
O38         Cr43   2.015       .  S
O39         Cr43   1.965       .  S
O39          C40   1.254       .  A
C40        C3758   1.496       .  S
Cr41         O44   1.765       .  S
Cr42         O44   1.765       .  S
Cr43         O44   1.766       .  S
O45         Cr63   1.978       .  S
O45          C53   1.260       .  A
O46         Cr63   2.012       .  S
O46          C47   1.266       .  A
C47          O48   1.260       .  A
C47        C3333   1.479       .  S
O48         Cr64   1.980       .  S
O49         Cr64   2.006       .  S
O49          C50   1.267       .  A
C50          O51   1.258       .  A
C50        C3301   1.489       .  S
O51         Cr65   1.973       .  S
O52         Cr65   2.011       .  S
O52          C53   1.269       .  A
C53        C3365   1.492       .  S
O54         Cr63   2.007       .  S
O54          C62   1.263       .  A
O55         Cr63   1.978       .  S
O55          C56   1.261       .  A
C56          O57   1.263       .  A
C56        C3726   1.490       .  S
O57         Cr64   2.002       .  S
O58         Cr64   1.975       .  S
O58          C59   1.259       .  A
C59          O60   1.266       .  A
C59        C3397   1.485       .  S
O60         Cr65   2.015       .  S
O61         Cr65   1.974       .  S
O61          C62   1.260       .  A
C62        C3566   1.490       .  S
Cr63         O66   1.766       .  S
Cr64         O66   1.766       .  S
Cr65         O66   1.766       .  S
O67         Cr85   1.981       .  S
O67          C75   1.264       .  A
O68         Cr85   2.015       .  S
O68          C69   1.266       .  A
C69          O70   1.261       .  A
C69        C3237   1.490       .  S
O70         Cr86   1.982       .  S
O71         Cr86   2.008       .  S
O71          C72   1.266       .  A
C72          O73   1.259       .  A
C72        C3269   1.472       .  S
O73         Cr87   1.969       .  S
O74         Cr87   2.012       .  S
O74          C75   1.268       .  A
C75        C3205   1.479       .  S
O76         Cr85   2.009       .  S
O76          C84   1.263       .  A
O77         Cr85   1.974       .  S
O77          C78   1.257       .  A
C78          O79   1.268       .  A
C78        C3406   1.500       .  S
O79         Cr86   2.009       .  S
O80         Cr86   1.966       .  S
O80          C81   1.254       .  A
C81          O82   1.265       .  A
C81        C3694   1.490       .  S
O82         Cr87   2.006       .  S
O83         Cr87   1.973       .  S
O83          C84   1.257       .  A
C84        C3534   1.488       .  S
Cr85         O88   1.770       .  S
Cr86         O88   1.771       .  S
Cr87         O88   1.773       .  S
O89        Cr107   2.018       .  S
O89          C97   1.269       .  A
O90        Cr107   1.973       .  S
O90          C91   1.257       .  A
C91          O92   1.267       .  A
C91        C3045   1.481       .  S
O92        Cr108   2.013       .  S
O93        Cr108   1.979       .  S
O93          C94   1.263       .  A
C94          O95   1.265       .  A
C94        C3662   1.490       .  S
O95        Cr109   2.008       .  S
O96        Cr109   1.977       .  S
O96          C97   1.262       .  A
C97        C3077   1.487       .  S
O98        Cr107   1.961       .  S
O98         C106   1.254       .  A
O99        Cr107   2.022       .  S
O99         C100   1.268       .  A
C100        O101   1.258       .  A
C100       C3109   1.481       .  S
O101       Cr108   1.976       .  S
O102       Cr108   2.003       .  S
O102        C103   1.262       .  A
C103        O104   1.261       .  A
C103       C3150   1.496       .  S
O104       Cr109   1.981       .  S
O105       Cr109   2.007       .  S
O105        C106   1.264       .  A
C106       C3173   1.479       .  S
Cr107       O110   1.769       .  S
Cr108       O110   1.768       .  S
Cr109       O110   1.771       .  S
O111       Cr129   1.977       .  S
O111        C119   1.263       .  A
O112       Cr129   2.007       .  S
O112        C113   1.265       .  A
C113        O114   1.259       .  A
C113       C2917   1.470       .  S
O114       Cr130   1.973       .  S
O115       Cr130   1.998       .  S
O115        C116   1.264       .  A
C116        O117   1.262       .  A
C116       C2949   1.472       .  S
O117       Cr131   1.975       .  S
O118       Cr131   2.005       .  S
O118        C119   1.265       .  A
C119       C3310   1.493       .  S
O120       Cr129   2.003       .  S
O120        C128   1.261       .  A
O121       Cr129   1.974       .  S
O121        C122   1.258       .  A
C122        O123   1.264       .  A
C122       C3182   1.469       .  S
O123       Cr130   2.001       .  S
O124       Cr130   1.975       .  S
O124        C125   1.260       .  A
C125        O126   1.262       .  A
C125       C3022   1.494       .  S
O126       Cr131   2.005       .  S
O127       Cr131   1.985       .  S
O127        C128   1.262       .  A
C128       C2981   1.500       .  S
Cr129       O132   1.769       .  S
Cr130       O132   1.769       .  S
Cr131       O132   1.765       .  S
O133       Cr151   2.008       .  S
O133        C141   1.265       .  A
O134       Cr151   1.976       .  S
O134        C135   1.262       .  A
C135        O136   1.266       .  A
C135       C2821   1.492       .  S
O136       Cr152   2.012       .  S
O137       Cr152   1.977       .  S
O137        C138   1.262       .  A
C138        O139   1.266       .  A
C138       C2853   1.488       .  S
O139       Cr153   2.011       .  S
O140       Cr153   1.966       .  S
O140        C141   1.257       .  A
C141       C3470   1.471       .  S
O142       Cr151   1.971       .  S
O142        C150   1.260       .  A
O143       Cr151   2.003       .  S
O143        C144   1.263       .  A
C144        O145   1.263       .  A
C144       C2885   1.498       .  S
O145       Cr152   1.982       .  S
O146       Cr152   2.016       .  S
O146        C147   1.266       .  A
C147        O148   1.255       .  A
C147       C3013   1.477       .  S
O148       Cr153   1.970       .  S
O149       Cr153   2.005       .  S
O149        C150   1.263       .  A
C150       C3141   1.481       .  S
Cr151       O154   1.765       .  S
Cr152       O154   1.768       .  S
Cr153       O154   1.769       .  S
O155       Cr173   1.980       .  S
O155        C163   1.264       .  A
O156       Cr173   2.017       .  S
O156        C157   1.269       .  A
C157        O158   1.259       .  A
C157       C3246   1.503       .  S
O158       Cr174   1.978       .  S
O159       Cr174   2.009       .  S
O159        C160   1.267       .  A
C160        O161   1.261       .  A
C160       C2757   1.493       .  S
O161       Cr175   1.985       .  S
O162       Cr175   2.012       .  S
O162        C163   1.268       .  A
C163       C2789   1.489       .  S
O164       Cr173   2.006       .  S
O164        C172   1.261       .  A
O165       Cr173   1.984       .  S
O165        C166   1.260       .  A
C166        O167   1.267       .  A
C166       C2990   1.485       .  S
O167       Cr174   2.008       .  S
O168       Cr174   1.968       .  S
O168        C169   1.257       .  A
C169        O170   1.266       .  A
C169       C2894   1.472       .  S
O170       Cr175   2.009       .  S
O171       Cr175   1.990       .  S
O171        C172   1.262       .  A
C172       C3118   1.504       .  S
Cr173       O176   1.768       .  S
Cr174       O176   1.770       .  S
Cr175       O176   1.769       .  S
O177       Cr195   2.004       .  S
O177        C185   1.264       .  A
O178       Cr195   1.975       .  S
O178        C179   1.261       .  A
C179        O180   1.264       .  A
C179       C3630   1.479       .  S
O180       Cr196   2.001       .  S
O181       Cr196   1.981       .  S
O181        C182   1.259       .  A
C182        O183   1.266       .  A
C182       C2597   1.475       .  S
O183       Cr197   2.009       .  S
O184       Cr197   1.973       .  S
O184        C185   1.262       .  A
C185       C2629   1.489       .  S
O186       Cr195   1.970       .  S
O186        C194   1.256       .  A
O187       Cr195   2.007       .  S
O187        C188   1.263       .  A
C188        O189   1.261       .  A
C188       C2693   1.486       .  S
O189       Cr196   1.977       .  S
O190       Cr196   2.005       .  S
O190        C191   1.267       .  A
C191        O192   1.257       .  A
C191       C2661   1.490       .  S
O192       Cr197   1.969       .  S
O193       Cr197   2.015       .  S
O193        C194   1.264       .  A
C194       C2734   1.479       .  S
Cr195       O198   1.763       .  S
Cr196       O198   1.764       .  S
Cr197       O198   1.766       .  S
O199       Cr217   1.978       .  S
O199        C207   1.259       .  A
O200       Cr217   2.003       .  S
O200        C201   1.264       .  A
C201        O202   1.263       .  A
C201       C2469   1.488       .  S
O202       Cr218   1.985       .  S
O203       Cr218   2.005       .  S
O203        C204   1.263       .  A
C204        O205   1.263       .  A
C204       C3438   1.500       .  S
O205       Cr219   1.984       .  S
O206       Cr219   2.010       .  S
O206        C207   1.268       .  A
C207       C2501   1.490       .  S
O208       Cr217   2.001       .  S
O208        C216   1.262       .  A
O209       Cr217   1.980       .  S
O209        C210   1.258       .  A
C210        O211   1.266       .  A
C210       C2725   1.496       .  S
O211       Cr218   2.011       .  S
O212       Cr218   1.981       .  S
O212        C213   1.261       .  A
C213        O214   1.266       .  A
C213       C2533   1.485       .  S
O214       Cr219   2.006       .  S
O215       Cr219   1.982       .  S
O215        C216   1.261       .  A
C216       C2565   1.497       .  S
Cr217       O220   1.765       .  S
Cr218       O220   1.768       .  S
Cr219       O220   1.769       .  S
O221       Cr239   1.974       .  S
O221        C229   1.259       .  A
O222       Cr239   2.009       .  S
O222        C223   1.266       .  A
C223        O224   1.264       .  A
C223       C3342   1.495       .  S
O224       Cr240   1.981       .  S
O225       Cr240   2.004       .  S
O225        C226   1.263       .  A
C226        O227   1.263       .  A
C226       C2414   1.496       .  S
O227       Cr241   1.980       .  S
O228       Cr241   2.010       .  S
O228        C229   1.265       .  A
C229       C2373   1.482       .  S
O230       Cr239   2.004       .  S
O230        C238   1.267       .  A
O231       Cr239   1.975       .  S
O231        C232   1.257       .  A
C232        O233   1.263       .  A
C232       C2702   1.475       .  S
O233       Cr240   2.006       .  S
O234       Cr240   1.985       .  S
O234        C235   1.262       .  A
C235        O236   1.267       .  A
C235       C2574   1.495       .  S
O236       Cr241   2.012       .  S
O237       Cr241   1.971       .  S
O237        C238   1.258       .  A
C238       C2437   1.480       .  S
Cr239       O242   1.766       .  S
Cr240       O242   1.766       .  S
Cr241       O242   1.767       .  S
O243       Cr261   2.014       .  S
O243        C251   1.270       .  A
O244       Cr261   1.973       .  S
O244        C245   1.257       .  A
C245        O246   1.268       .  A
C245       C3214   1.496       .  S
O246       Cr262   2.011       .  S
O247       Cr262   1.976       .  S
O247        C248   1.261       .  A
C248        O249   1.264       .  A
C248       C2341   1.483       .  S
O249       Cr263   2.007       .  S
O250       Cr263   1.973       .  S
O250        C251   1.258       .  A
C251       C2309   1.496       .  S
O252       Cr261   1.969       .  S
O252        C260   1.256       .  A
O253       Cr261   2.010       .  S
O253        C254   1.266       .  A
C254        O255   1.258       .  A
C254       C2542   1.475       .  S
O255       Cr262   1.971       .  S
O256       Cr262   2.013       .  S
O256        C257   1.267       .  A
C257        O258   1.258       .  A
C257       C2670   1.482       .  S
O258       Cr263   1.969       .  S
O259       Cr263   2.010       .  S
O259        C260   1.263       .  A
C260       C2446   1.478       .  S
Cr261       O264   1.766       .  S
Cr262       O264   1.768       .  S
Cr263       O264   1.769       .  S
O265       Cr283   2.008       .  S
O265        C273   1.266       .  A
O266       Cr283   1.975       .  S
O266        C267   1.257       .  A
C267        O268   1.268       .  A
C267       C2190   1.487       .  S
O268       Cr284   2.014       .  S
O269       Cr284   1.981       .  S
O269        C270   1.262       .  A
C270        O271   1.265       .  A
C270       C3086   1.494       .  S
O271       Cr285   2.010       .  S
O272       Cr285   1.965       .  S
O272        C273   1.259       .  A
C273       C2638   1.479       .  S
O274       Cr283   1.973       .  S
O274        C282   1.256       .  A
O275       Cr283   2.009       .  S
O275        C276   1.268       .  A
C276        O277   1.257       .  A
C276       C2286   1.493       .  S
O277       Cr284   1.969       .  S
O278       Cr284   2.018       .  S
O278        C279   1.267       .  A
C279        O280   1.261       .  A
C279       C2213   1.494       .  S
O280       Cr285   1.970       .  S
O281       Cr285   2.014       .  S
O281        C282   1.266       .  A
C282       C2254   1.489       .  S
Cr283       O286   1.767       .  S
Cr284       O286   1.767       .  S
Cr285       O286   1.767       .  S
O287       Cr305   2.017       .  S
O287        C295   1.269       .  A
O288       Cr305   1.968       .  S
O288        C289   1.259       .  A
C289        O290   1.269       .  A
C289       C2085   1.485       .  S
O290       Cr306   2.009       .  S
O291       Cr306   1.975       .  S
O291        C292   1.259       .  A
C292        O293   1.268       .  A
C292       C2766   1.483       .  S
O293       Cr307   2.016       .  S
O294       Cr307   1.977       .  S
O294        C295   1.259       .  A
C295       C2318   1.501       .  S
O296       Cr305   1.970       .  S
O296        C304   1.256       .  A
O297       Cr305   2.011       .  S
O297        C298   1.266       .  A
C298        O299   1.255       .  A
C298       C2277   1.498       .  S
O299       Cr306   1.972       .  S
O300       Cr306   2.004       .  S
O300        C301   1.266       .  A
C301        O302   1.258       .  A
C301       C2117   1.490       .  S
O302       Cr307   1.974       .  S
O303       Cr307   2.013       .  S
O303        C304   1.268       .  A
C304       C2149   1.494       .  S
Cr305       O308   1.768       .  S
Cr306       O308   1.767       .  S
Cr307       O308   1.767       .  S
O309       Cr327   1.978       .  S
O309        C317   1.259       .  A
O310       Cr327   2.006       .  S
O310        C311   1.267       .  A
C311        O312   1.258       .  A
C311       C2478   1.498       .  S
O312       Cr328   1.978       .  S
O313       Cr328   1.999       .  S
O313        C314   1.265       .  A
C314        O315   1.260       .  A
C314       C2021   1.486       .  S
O315       Cr329   1.982       .  S
O316       Cr329   2.010       .  S
O316        C317   1.266       .  A
C317       C2830   1.485       .  S
O318       Cr327   2.009       .  S
O318        C326   1.265       .  A
O319       Cr327   1.972       .  S
O319        C320   1.259       .  A
C320        O321   1.263       .  A
C320       C2245   1.488       .  S
O321       Cr328   2.011       .  S
O322       Cr328   1.970       .  S
O322        C323   1.258       .  A
C323        O324   1.265       .  A
C323       C2053   1.481       .  S
O324       Cr329   2.013       .  S
O325       Cr329   1.976       .  S
O325        C326   1.260       .  A
C326       C2126   1.481       .  S
Cr327       O330   1.774       .  S
Cr328       O330   1.773       .  S
Cr329       O330   1.776       .  S
O331       Cr349   2.011       .  S
O331        C339   1.269       .  A
O332       Cr349   1.970       .  S
O332        C333   1.256       .  A
C333        O334   1.269       .  A
C333       C2926   1.497       .  S
O334       Cr350   2.013       .  S
O335       Cr350   1.979       .  S
O335        C336   1.260       .  A
C336        O337   1.268       .  A
C336       C2382   1.487       .  S
O337       Cr351   2.008       .  S
O338       Cr351   1.967       .  S
O338        C339   1.256       .  A
C339       C1989   1.494       .  S
O340       Cr349   1.970       .  S
O340        C348   1.259       .  A
O341       Cr349   2.012       .  S
O341        C342   1.265       .  A
C342        O343   1.261       .  A
C342       C2222   1.498       .  S
O343       Cr350   1.974       .  S
O344       Cr350   2.010       .  S
O344        C345   1.266       .  A
C345        O346   1.257       .  A
C345       C2158   1.480       .  S
O346       Cr351   1.967       .  S
O347       Cr351   2.017       .  S
O347        C348   1.266       .  A
C348       C2062   1.491       .  S
Cr349       O352   1.762       .  S
Cr350       O352   1.765       .  S
Cr351       O352   1.762       .  S
O353       Cr371   2.011       .  S
O353        C361   1.266       .  A
O354       Cr371   1.982       .  S
O354        C355   1.262       .  A
C355        O356   1.265       .  A
C355       C1861   1.494       .  S
O356       Cr372   2.009       .  S
O357       Cr372   1.974       .  S
O357        C358   1.260       .  A
C358        O359   1.269       .  A
C358       C1829   1.490       .  S
O359       Cr373   2.007       .  S
O360       Cr373   1.975       .  S
O360        C361   1.257       .  A
C361       C3598   1.483       .  S
O362       Cr371   1.970       .  S
O362        C370   1.260       .  A
O363       Cr371   2.009       .  S
O363        C364   1.266       .  A
C364        O365   1.261       .  A
C364       C1925   1.483       .  S
O365       Cr372   1.980       .  S
O366       Cr372   2.012       .  S
O366        C367   1.264       .  A
C367        O368   1.257       .  A
C367       C1957   1.481       .  S
O368       Cr373   1.970       .  S
O369       Cr373   2.019       .  S
O369        C370   1.267       .  A
C370       C1893   1.492       .  S
Cr371       O374   1.770       .  S
Cr372       O374   1.771       .  S
Cr373       O374   1.769       .  S
O375       Cr393   1.983       .  S
O375        C383   1.260       .  A
O376       Cr393   2.011       .  S
O376        C377   1.267       .  A
C377        O378   1.260       .  A
C377       C1701   1.472       .  S
O378       Cr394   1.971       .  S
O379       Cr394   2.006       .  S
O379        C380   1.267       .  A
C380        O381   1.261       .  A
C380       C1733   1.488       .  S
O381       Cr395   1.984       .  S
O382       Cr395   2.004       .  S
O382        C383   1.263       .  A
C383       C3374   1.474       .  S
O384       Cr393   2.013       .  S
O384        C392   1.266       .  A
O385       Cr393   1.976       .  S
O385        C386   1.258       .  A
C386        O387   1.261       .  A
C386       C1774   1.482       .  S
O387       Cr394   2.004       .  S
O388       Cr394   1.976       .  S
O388        C389   1.258       .  A
C389        O390   1.265       .  A
C389       C1966   1.476       .  S
O390       Cr395   2.011       .  S
O391       Cr395   1.978       .  S
O391        C392   1.263       .  A
C392       C1797   1.491       .  S
Cr393       O396   1.770       .  S
Cr394       O396   1.773       .  S
Cr395       O396   1.772       .  S
O397       Cr415   2.015       .  S
O397        C405   1.267       .  A
O398       Cr415   1.964       .  S
O398        C399   1.256       .  A
C399        O400   1.265       .  A
C399       C3502   1.469       .  S
O400       Cr416   2.008       .  S
O401       Cr416   1.964       .  S
O401        C402   1.256       .  A
C402        O403   1.270       .  A
C402       C1646   1.480       .  S
O403       Cr417   2.018       .  S
O404       Cr417   1.971       .  S
O404        C405   1.260       .  A
C405       C1614   1.480       .  S
O406       Cr415   1.966       .  S
O406        C414   1.257       .  A
O407       Cr415   2.013       .  S
O407        C408   1.268       .  A
C408        O409   1.257       .  A
C408       C1806   1.481       .  S
O409       Cr416   1.970       .  S
O410       Cr416   2.010       .  S
O410        C411   1.266       .  A
C411        O412   1.256       .  A
C411       C1934   1.489       .  S
O412       Cr417   1.971       .  S
O413       Cr417   2.018       .  S
O413        C414   1.267       .  A
C414       C1669   1.475       .  S
Cr415       O418   1.764       .  S
Cr416       O418   1.769       .  S
Cr417       O418   1.766       .  S
O419       Cr437   1.968       .  S
O419        C427   1.259       .  A
O420       Cr437   2.006       .  S
O420        C421   1.265       .  A
C421        O422   1.264       .  A
C421       C1582   1.494       .  S
O422       Cr438   1.977       .  S
O423       Cr438   2.009       .  S
O423        C424   1.263       .  A
C424        O425   1.261       .  A
C424       C1541   1.499       .  S
O425       Cr439   1.978       .  S
O426       Cr439   2.011       .  S
O426        C427   1.267       .  A
C427       C3278   1.473       .  S
O428       Cr437   2.008       .  S
O428        C436   1.264       .  A
O429       Cr437   1.981       .  S
O429        C430   1.258       .  A
C430        O431   1.265       .  A
C430       C1765   1.498       .  S
O431       Cr438   2.003       .  S
O432       Cr438   1.972       .  S
O432        C433   1.258       .  A
C433        O434   1.267       .  A
C433       C1678   1.484       .  S
O434       Cr439   2.010       .  S
O435       Cr439   1.976       .  S
O435        C436   1.258       .  A
C436       C1902   1.476       .  S
Cr437       O440   1.767       .  S
Cr438       O440   1.766       .  S
Cr439       O440   1.768       .  S
O441       Cr459   1.976       .  S
O441        C449   1.258       .  A
O442       Cr459   2.004       .  S
O442        C443   1.264       .  A
C443        O444   1.262       .  A
C443       C1413   1.477       .  S
O444       Cr460   1.983       .  S
O445       Cr460   2.018       .  S
O445        C446   1.269       .  A
C446        O447   1.257       .  A
C446       C1637   1.478       .  S
O447       Cr461   1.968       .  S
O448       Cr461   2.010       .  S
O448        C449   1.265       .  A
C449       C2862   1.472       .  S
O450       Cr459   2.005       .  S
O450        C458   1.266       .  A
O451       Cr459   1.971       .  S
O451        C452   1.259       .  A
C452        O453   1.267       .  A
C452       C1518   1.485       .  S
O453       Cr460   2.014       .  S
O454       Cr460   1.977       .  S
O454        C455   1.261       .  A
C455        O456   1.264       .  A
C455       C1477   1.497       .  S
O456       Cr461   2.012       .  S
O457       Cr461   1.972       .  S
O457        C458   1.256       .  A
C458       C1445   1.495       .  S
Cr459       O462   1.767       .  S
Cr460       O462   1.769       .  S
Cr461       O462   1.770       .  S
O463       Cr481   1.976       .  S
O463        C471   1.259       .  A
O464       Cr481   2.014       .  S
O464        C465   1.270       .  A
C465        O466   1.259       .  A
C465       C1573   1.485       .  S
O466       Cr482   1.968       .  S
O467       Cr482   2.010       .  S
O467        C468   1.267       .  A
C468        O469   1.259       .  A
C468       C2798   1.498       .  S
O469       Cr483   1.982       .  S
O470       Cr483   2.012       .  S
O470        C471   1.268       .  A
C471       C1317   1.490       .  S
O472       Cr481   2.017       .  S
O472        C480   1.269       .  A
O473       Cr481   1.972       .  S
O473        C474   1.259       .  A
C474        O475   1.262       .  A
C474       C1390   1.490       .  S
O475       Cr482   2.005       .  S
O476       Cr482   1.968       .  S
O476        C477   1.256       .  A
C477        O478   1.269       .  A
C477       C1349   1.494       .  S
O478       Cr483   2.017       .  S
O479       Cr483   1.971       .  S
O479        C480   1.256       .  A
C480       C1509   1.502       .  S
Cr481       O484   1.769       .  S
Cr482       O484   1.768       .  S
Cr483       O484   1.766       .  S
O485       Cr503   1.978       .  S
O485        C493   1.260       .  A
O486       Cr503   2.014       .  S
O486        C487   1.268       .  A
C487        O488   1.260       .  A
C487       C3054   1.488       .  S
O488       Cr504   1.981       .  S
O489       Cr504   2.006       .  S
O489        C490   1.268       .  A
C490        O491   1.260       .  A
C490       C1253   1.497       .  S
O491       Cr505   1.983       .  S
O492       Cr505   2.006       .  S
O492        C493   1.267       .  A
C493       C1870   1.481       .  S
O494       Cr503   2.009       .  S
O494        C502   1.266       .  A
O495       Cr503   1.973       .  S
O495        C496   1.259       .  A
C496        O497   1.263       .  A
C496       C1358   1.493       .  S
O497       Cr504   2.007       .  S
O498       Cr504   1.983       .  S
O498        C499   1.261       .  A
C499        O500   1.265       .  A
C499       C1285   1.491       .  S
O500       Cr505   2.013       .  S
O501       Cr505   1.977       .  S
O501        C502   1.259       .  A
C502       C1486   1.491       .  S
Cr503       O506   1.771       .  S
Cr504       O506   1.767       .  S
Cr505       O506   1.769       .  S
O507       Cr525   1.974       .  S
O507        C515   1.260       .  A
O508       Cr525   2.012       .  S
O508        C509   1.267       .  A
C509        O510   1.260       .  A
C509       C1710   1.475       .  S
O510       Cr526   1.973       .  S
O511       Cr526   2.001       .  S
O511        C512   1.264       .  A
C512        O513   1.260       .  A
C512       C2958   1.466       .  S
O513       Cr527   1.972       .  S
O514       Cr527   2.010       .  S
O514        C515   1.266       .  A
C515       C1221   1.481       .  S
O516       Cr525   2.016       .  S
O516        C524   1.268       .  A
O517       Cr525   1.971       .  S
O517        C518   1.256       .  A
C518        O519   1.263       .  A
C518       C1381   1.481       .  S
O519       Cr526   1.997       .  S
O520       Cr526   1.979       .  S
O520        C521   1.260       .  A
C521        O522   1.261       .  A
C521       C1454   1.483       .  S
O522       Cr527   1.997       .  S
O523       Cr527   1.975       .  S
O523        C524   1.256       .  A
C524       C1294   1.504       .  S
Cr525       O528   1.769       .  S
Cr526       O528   1.771       .  S
Cr527       O528   1.768       .  S
O529       Cr547   1.980       .  S
O529        C537   1.263       .  A
O530       Cr547   2.026       .  S
O530        C531   1.271       .  A
C531        O532   1.260       .  A
C531       C2181   1.484       .  S
O532       Cr548   1.973       .  S
O533       Cr548   2.007       .  S
O533        C534   1.263       .  A
C534        O535   1.263       .  A
C534       C1102   1.500       .  S
O535       Cr549   1.984       .  S
O536       Cr549   2.010       .  S
O536        C537   1.266       .  A
C537       C1262   1.494       .  S
O538       Cr547   2.017       .  S
O538        C546   1.266       .  A
O539       Cr547   1.980       .  S
O539        C540   1.257       .  A
C540        O541   1.265       .  A
C540       C1134   1.498       .  S
O541       Cr548   2.005       .  S
O542       Cr548   1.977       .  S
O542        C543   1.259       .  A
C543        O544   1.268       .  A
C543       C1157   1.483       .  S
O544       Cr549   2.018       .  S
O545       Cr549   1.972       .  S
O545        C546   1.261       .  A
C546       C1189   1.502       .  S
Cr547       O550   1.770       .  S
Cr548       O550   1.765       .  S
Cr549       O550   1.765       .  S
O551       Cr569   2.008       .  S
O551        C559   1.266       .  A
O552       Cr569   1.977       .  S
O552        C553   1.263       .  A
C553        O554   1.268       .  A
C553        C997   1.501       .  S
O554       Cr570   2.017       .  S
O555       Cr570   1.969       .  S
O555        C556   1.257       .  A
C556        O557   1.269       .  A
C556       C1230   1.491       .  S
O557       Cr571   2.019       .  S
O558       Cr571   1.974       .  S
O558        C559   1.257       .  A
C559       C1998   1.476       .  S
O560       Cr569   1.973       .  S
O560        C568   1.257       .  A
O561       Cr569   2.007       .  S
O561        C562   1.263       .  A
C562        O563   1.261       .  A
C562       C1029   1.497       .  S
O563       Cr570   1.975       .  S
O564       Cr570   2.021       .  S
O564        C565   1.268       .  A
C565        O566   1.256       .  A
C565       C1198   1.476       .  S
O566       Cr571   1.969       .  S
O567       Cr571   2.019       .  S
O567        C568   1.270       .  A
C568       C1061   1.502       .  S
Cr569       O572   1.767       .  S
Cr570       O572   1.766       .  S
Cr571       O572   1.768       .  S
O573       Cr591   1.969       .  S
O573        C581   1.260       .  A
O574       Cr591   2.012       .  S
O574        C575   1.265       .  A
C575        O576   1.259       .  A
C575       C1422   1.477       .  S
O576       Cr592   1.978       .  S
O577       Cr592   2.005       .  S
O577        C578   1.265       .  A
C578        O579   1.259       .  A
C578       C2030   1.472       .  S
O579       Cr593   1.977       .  S
O580       Cr593   2.015       .  S
O580        C581   1.268       .  A
C581        C942   1.473       .  S
O582       Cr591   2.011       .  S
O582        C590   1.261       .  A
O583       Cr591   1.971       .  S
O583        C584   1.258       .  A
C584        O585   1.265       .  A
C584        C965   1.468       .  S
O585       Cr592   2.008       .  S
O586       Cr592   1.972       .  S
O586        C587   1.258       .  A
C587        O588   1.268       .  A
C587       C1070   1.481       .  S
O588       Cr593   2.021       .  S
O589       Cr593   1.983       .  S
O589        C590   1.261       .  A
C590       C1166   1.503       .  S
Cr591       O594   1.773       .  S
Cr592       O594   1.777       .  S
Cr593       O594   1.771       .  S
O595       Cr613   1.975       .  S
O595        C603   1.260       .  A
O596       Cr613   2.002       .  S
O596        C597   1.263       .  A
C597        O598   1.259       .  A
C597       C2094   1.469       .  S
O598       Cr614   1.975       .  S
O599       Cr614   2.006       .  S
O599        C600   1.266       .  A
C600        O601   1.258       .  A
C600        C901   1.479       .  S
O601       Cr615   1.975       .  S
O602       Cr615   2.014       .  S
O602        C603   1.268       .  A
C603       C1326   1.473       .  S
O604       Cr613   2.001       .  S
O604        C612   1.263       .  A
O605       Cr613   1.975       .  S
O605        C606   1.260       .  A
C606        O607   1.265       .  A
C606       C1125   1.476       .  S
O607       Cr614   2.007       .  S
O608       Cr614   1.974       .  S
O608        C609   1.258       .  A
C609        O610   1.265       .  A
C609       C1038   1.475       .  S
O610       Cr615   2.010       .  S
O611       Cr615   1.978       .  S
O611        C612   1.256       .  A
C612        C974   1.489       .  S
Cr613       O616   1.772       .  S
Cr614       O616   1.775       .  S
Cr615       O616   1.771       .  S
O617       Cr635   1.997       .  S
O617        C625   1.263       .  A
O618       Cr635   2.010       .  S
O618        C619   1.267       .  A
C619        O620   1.259       .  A
C619       C1006   1.481       .  S
O620       Cr636   1.975       .  S
O621       Cr636   2.015       .  S
O621        C622   1.270       .  A
C622        O623   1.258       .  A
C622       C2405   1.479       .  S
O623       Cr637   1.969       .  S
O624       Cr637   1.995       .  S
O624        C625   1.259       .  A
C625       C1742   1.502       .  S
O626       Cr635   2.019       .  S
O626        C634   1.271       .  A
O627       Cr635   1.989       .  S
O627        C628   1.263       .  A
C628        O629   1.265       .  A
C628        C869   1.492       .  S
O629       Cr636   2.011       .  S
O630       Cr636   1.973       .  S
O630        C631   1.256       .  A
C631        O632   1.261       .  A
C631        C805   1.474       .  S
O632       Cr637   2.007       .  S
O633       Cr637   1.971       .  S
O633        C634   1.259       .  A
C634        C837   1.499       .  S
Cr635       O638   1.770       .  S
Cr636       O638   1.770       .  S
Cr637       O638   1.771       .  S
O639       Cr657   2.022       .  S
O639        C647   1.269       .  A
O640       Cr657   1.983       .  S
O640        C641   1.263       .  A
C641        O642   1.265       .  A
C641        C910   1.495       .  S
O642       Cr658   2.007       .  S
O643       Cr658   1.974       .  S
O643        C644   1.260       .  A
C644        O645   1.264       .  A
C644       C2350   1.496       .  S
O645       Cr659   2.009       .  S
O646       Cr659   1.976       .  S
O646        C647   1.258       .  A
C647       C1550   1.479       .  S
O648       Cr657   1.977       .  S
O648        C656   1.259       .  A
O649       Cr657   2.018       .  S
O649        C650   1.269       .  A
C650        O651   1.258       .  A
C650        C878   1.499       .  S
O651       Cr658   1.974       .  S
O652       Cr658   2.016       .  S
O652        C653   1.268       .  A
C653        O654   1.258       .  A
C653        C773   1.490       .  S
O654       Cr659   1.973       .  S
O655       Cr659   2.019       .  S
O655        C656   1.267       .  A
C656        C741   1.482       .  S
Cr657       O660   1.768       .  S
Cr658       O660   1.767       .  S
Cr659       O660   1.769       .  S
O661       Cr679   1.970       .  S
O661        C669   1.261       .  A
O662       Cr679   2.006       .  S
O662        C663   1.265       .  A
C663        O664   1.260       .  A
C663       C1093   1.476       .  S
O664       Cr680   1.979       .  S
O665       Cr680   2.019       .  S
O665        C666   1.267       .  A
C666        O667   1.258       .  A
C666       C2606   1.495       .  S
O667       Cr681   1.966       .  S
O668       Cr681   2.013       .  S
O668        C669   1.268       .  A
C669       C1838   1.474       .  S
O670       Cr679   2.006       .  S
O670        C678   1.262       .  A
O671       Cr679   1.971       .  S
O671        C672   1.258       .  A
C672        O673   1.270       .  A
C672        C718   1.496       .  S
O673       Cr680   2.014       .  S
O674       Cr680   1.970       .  S
O674        C675   1.257       .  A
C675        O676   1.268       .  A
C675        C782   1.481       .  S
O676       Cr681   2.022       .  S
O677       Cr681   1.980       .  S
O677        C678   1.261       .  A
C678        C846   1.483       .  S
Cr679       O682   1.768       .  S
Cr680       O682   1.768       .  S
Cr681       O682   1.767       .  S
O683       Cr701   1.984       .  S
O683        C691   1.262       .  A
O684       Cr701   2.013       .  S
O684        C685   1.268       .  A
C685        O686   1.258       .  A
C685        C933   1.470       .  S
O686       Cr702   1.965       .  S
O687       Cr702   1.996       .  S
O687        C688   1.262       .  A
C688        O689   1.267       .  A
C688       C2510   1.498       .  S
O689       Cr703   1.997       .  S
O690       Cr703   2.005       .  S
O690        C691   1.264       .  A
C691       C1605   1.484       .  S
O692       Cr701   2.007       .  S
O692        C700   1.264       .  A
O693       Cr701   1.980       .  S
O693        C694   1.258       .  A
C694        O695   1.259       .  A
C694        C709   1.487       .  S
O695       Cr702   1.999       .  S
O696       Cr702   1.972       .  S
O696        C697   1.257       .  A
C697        O698   1.265       .  A
C697        C814   1.483       .  S
O698       Cr703   2.004       .  S
O699       Cr703   1.987       .  S
O699        C700   1.264       .  A
C700        C750   1.500       .  S
Cr701       O704   1.770       .  S
Cr702       O704   1.770       .  S
Cr703       O704   1.770       .  S
C705        C706   1.400       .  A
C705        C710   1.407       .  A
C705        H715   1.083       .  S
C706        C711   1.482       .  S
C706        C707   1.414       .  A
C707        C708   1.405       .  A
C707        C712   1.521       .  S
C708        C709   1.407       .  A
C708        H713   1.082       .  S
C709        C710   1.423       .  A
C710        C714   1.521       .  S
C711        C716   1.411       .  A
C711        C720   1.399       .  A
C712        F728   1.382       .  S
C712        F729   1.382       .  S
C712        F730   1.385       .  S
C714        F725   1.385       .  S
C714        F726   1.383       .  S
C714        F727   1.384       .  S
C716        C717   1.404       .  A
C716        C721   1.520       .  S
C717        C718   1.411       .  A
C717        H722   1.082       .  S
C718        C719   1.430       .  A
C719        C720   1.408       .  A
C719        C723   1.523       .  S
C720        H724   1.083       .  S
C721        F734   1.385       .  S
C721        F735   1.382       .  S
C721        F736   1.382       .  S
C723        F731   1.385       .  S
C723        F732   1.383       .  S
C723        F733   1.382       .  S
C737        C738   1.401       .  A
C737        C742   1.406       .  A
C737        H747   1.083       .  S
C738        C743   1.488       .  S
C738        C739   1.417       .  A
C739        C740   1.410       .  A
C739        C744   1.518       .  S
C740        C741   1.404       .  A
C740        H745   1.083       .  S
C741        C742   1.418       .  A
C742        C746   1.517       .  S
C743        C748   1.414       .  A
C743        C752   1.398       .  A
C744        F760   1.382       .  S
C744        F761   1.382       .  S
C744        F762   1.385       .  S
C746        F757   1.382       .  S
C746        F758   1.385       .  S
C746        F759   1.382       .  S
C748        C749   1.408       .  A
C748        C753   1.520       .  S
C749        C750   1.410       .  A
C749        H754   1.082       .  S
C750        C751   1.430       .  A
C751        C752   1.409       .  A
C751        C755   1.522       .  S
C752        H756   1.083       .  S
C753        F766   1.385       .  S
C753        F767   1.382       .  S
C753        F768   1.382       .  S
C755        F763   1.381       .  S
C755        F764   1.382       .  S
C755        F765   1.385       .  S
C769        C770   1.401       .  A
C769        C774   1.409       .  A
C769        H779   1.083       .  S
C770        C775   1.484       .  S
C770        C771   1.414       .  A
C771        C772   1.406       .  A
C771        C776   1.521       .  S
C772        C773   1.407       .  A
C772        H777   1.081       .  S
C773        C774   1.423       .  A
C774        C778   1.519       .  S
C775        C780   1.415       .  A
C775        C784   1.400       .  A
C776        F792   1.383       .  S
C776        F793   1.381       .  S
C776        F794   1.384       .  S
C778        F789   1.382       .  S
C778        F790   1.385       .  S
C778        F791   1.383       .  S
C780        C781   1.410       .  A
C780        C785   1.519       .  S
C781        C782   1.405       .  A
C781        H786   1.083       .  S
C782        C783   1.420       .  A
C783        C784   1.405       .  A
C783        C787   1.518       .  S
C784        H788   1.083       .  S
C785        F798   1.384       .  S
C785        F799   1.383       .  S
C785        F800   1.381       .  S
C787        F795   1.385       .  S
C787        F796   1.383       .  S
C787        F797   1.379       .  S
C801        C802   1.401       .  A
C801        C806   1.406       .  A
C801        H811   1.083       .  S
C802        C807   1.476       .  S
C802        C803   1.414       .  A
C803        C804   1.402       .  A
C803        C808   1.521       .  S
C804        C805   1.401       .  A
C804        H809   1.081       .  S
C805        C806   1.415       .  A
C806        C810   1.515       .  S
C807        C812   1.411       .  A
C807        C816   1.399       .  A
C808        F824   1.382       .  S
C808        F825   1.382       .  S
C808        F826   1.385       .  S
C810        F821   1.383       .  S
C810        F822   1.384       .  S
C810        F823   1.382       .  S
C812        C813   1.402       .  A
C812        C817   1.520       .  S
C813        C814   1.408       .  A
C813        H818   1.082       .  S
C814        C815   1.423       .  A
C815        C816   1.406       .  A
C815        C819   1.521       .  S
C816        H820   1.083       .  S
C817        F830   1.385       .  S
C817        F831   1.382       .  S
C817        F832   1.382       .  S
C819        F827   1.385       .  S
C819        F828   1.383       .  S
C819        F829   1.383       .  S
C833        C834   1.397       .  A
C833        C838   1.407       .  A
C833        H843   1.084       .  S
C834        C839   1.481       .  S
C834        C835   1.410       .  A
C835        C836   1.406       .  A
C835        C840   1.519       .  S
C836        C837   1.412       .  A
C836        H841   1.082       .  S
C837        C838   1.430       .  A
C838        C842   1.521       .  S
C839        C844   1.415       .  A
C839        C848   1.401       .  A
C840        F856   1.383       .  S
C840        F857   1.382       .  S
C840        F858   1.384       .  S
C842        F853   1.385       .  S
C842        F854   1.383       .  S
C842        F855   1.380       .  S
C844        C845   1.403       .  A
C844        C849   1.521       .  S
C845        C846   1.403       .  A
C845        H850   1.085       .  S
C846        C847   1.422       .  A
C847        C848   1.408       .  A
C847        C851   1.520       .  S
C848        H852   1.086       .  S
C849        F862   1.385       .  S
C849        F863   1.382       .  S
C849        F864   1.382       .  S
C851        F859   1.385       .  S
C851        F860   1.382       .  S
C851        F861   1.384       .  S
C865        C866   1.399       .  A
C865        C870   1.406       .  A
C865        H875   1.083       .  S
C866        C871   1.489       .  S
C866        C867   1.417       .  A
C867        C868   1.411       .  A
C867        C872   1.519       .  S
C868        C869   1.406       .  A
C868        H873   1.083       .  S
C869        C870   1.423       .  A
C870        C874   1.515       .  S
C871        C876   1.414       .  A
C871        C880   1.399       .  A
C872        F888   1.381       .  S
C872        F889   1.382       .  S
C872        F890   1.384       .  S
C874        F885   1.382       .  S
C874        F886   1.385       .  S
C874        F887   1.376       .  S
C876        C877   1.408       .  A
C876        C881   1.519       .  S
C877        C878   1.410       .  A
C877        H882   1.082       .  S
C878        C879   1.427       .  A
C879        C880   1.408       .  A
C879        C883   1.519       .  S
C880        H884   1.083       .  S
C881        F894   1.385       .  S
C881        F895   1.382       .  S
C881        F896   1.382       .  S
C883        F891   1.385       .  S
C883        F892   1.381       .  S
C883        F893   1.383       .  S
C897        C898   1.401       .  A
C897        C902   1.405       .  A
C897        H907   1.083       .  S
C898        C903   1.484       .  S
C898        C899   1.416       .  A
C899        C900   1.409       .  A
C899        C904   1.520       .  S
C900        C901   1.405       .  A
C900        H905   1.084       .  S
C901        C902   1.418       .  A
C902        C906   1.519       .  S
C903        C908   1.412       .  A
C903        C912   1.400       .  A
C904        F920   1.382       .  S
C904        F921   1.382       .  S
C904        F922   1.385       .  S
C906        F917   1.384       .  S
C906        F918   1.383       .  S
C906        F919   1.383       .  S
C908        C909   1.407       .  A
C908        C913   1.520       .  S
C909        C910   1.408       .  A
C909        H914   1.066       .  S
C910        C911   1.426       .  A
C911        C912   1.408       .  A
C911        C915   1.522       .  S
C912        H916   1.080       .  S
C913        F926   1.385       .  S
C913        F927   1.382       .  S
C913        F928   1.382       .  S
C915        F923   1.384       .  S
C915        F924   1.383       .  S
C915        F925   1.385       .  S
C929        C930   1.404       .  A
C929        C934   1.407       .  A
C929        H939   1.083       .  S
C930        C935   1.482   1_565  S
C930        C931   1.417       .  A
C931        C932   1.404       .  A
C931        C936   1.520       .  S
C932        C933   1.401       .  A
C932        H937   1.084       .  S
C933        C934   1.413       .  A
C934        C938   1.516       .  S
C935        C940   1.416       .  A
C935        C944   1.403       .  A
C936        F952   1.382   1_565  S
C936        F953   1.382   1_565  S
C936        F954   1.385       .  S
C938        F949   1.384       .  S
C938        F950   1.383       .  S
C938        F951   1.382       .  S
C940        C941   1.404       .  A
C940        C945   1.520       .  S
C941        C942   1.402       .  A
C941        H946   1.083       .  S
C942        C943   1.415       .  A
C943        C944   1.407       .  A
C943        C947   1.517       .  S
C944        H948   1.083       .  S
C945        F958   1.385       .  S
C945        F959   1.382       .  S
C945        F960   1.383   1_545  S
C947        F955   1.385       .  S
C947        F956   1.383       .  S
C947        F957   1.382       .  S
C961        C962   1.403       .  A
C961        C966   1.406       .  A
C961        H971   1.083       .  S
C962        C967   1.480       .  S
C962        C963   1.416       .  A
C963        C964   1.405       .  A
C963        C968   1.520       .  S
C964        C965   1.401       .  A
C964        H969   1.083       .  S
C965        C966   1.413       .  A
C966        C970   1.518       .  S
C967        C972   1.412       .  A
C967        C976   1.399       .  A
C968        F984   1.382       .  S
C968        F985   1.382       .  S
C968        F986   1.385       .  S
C970        F981   1.384       .  S
C970        F982   1.384       .  S
C970        F983   1.382       .  S
C972        C973   1.405       .  A
C972        C977   1.520       .  S
C973        C974   1.409       .  A
C973        H978   1.083       .  S
C974        C975   1.424       .  A
C975        C976   1.407       .  A
C975        C979   1.520       .  S
C976        H980   1.083       .  S
C977        F990   1.384       .  S
C977        F991   1.382       .  S
C977        F992   1.382       .  S
C979        F987   1.383       .  S
C979        F988   1.380       .  S
C979        F989   1.385       .  S
C993        C994   1.400       .  A
C993        C998   1.409       .  A
C993       H1003   1.083       .  S
C994        C999   1.490       .  S
C994        C995   1.414       .  A
C995        C996   1.409       .  A
C995       C1000   1.520       .  S
C996        C997   1.411       .  A
C996       H1001   1.082       .  S
C997        C998   1.428       .  A
C998       C1002   1.522       .  S
C999       C1004   1.418       .  A
C999       C1008   1.403       .  A
C1000      F1016   1.382       .  S
C1000      F1017   1.382       .  S
C1000      F1018   1.385       .  S
C1002      F1013   1.385       .  S
C1002      F1014   1.383       .  S
C1002      F1015   1.383       .  S
C1004      C1005   1.409       .  A
C1004      C1009   1.519       .  S
C1005      C1006   1.403       .  A
C1005      H1010   1.083       .  S
C1006      C1007   1.419       .  A
C1007      C1008   1.408       .  A
C1007      C1011   1.519       .  S
C1008      H1012   1.082       .  S
C1009      F1022   1.385       .  S
C1009      F1023   1.381       .  S
C1009      F1024   1.382       .  S
C1011      F1019   1.383       .  S
C1011      F1020   1.383       .  S
C1011      F1021   1.385       .  S
C1025      C1026   1.399       .  A
C1025      C1030   1.409       .  A
C1025      H1035   1.083       .  S
C1026      C1031   1.482       .  S
C1026      C1027   1.412       .  A
C1027      C1028   1.404       .  A
C1027      C1032   1.521       .  S
C1028      C1029   1.410       .  A
C1028      H1033   1.081       .  S
C1029      C1030   1.428       .  A
C1030      C1034   1.522       .  S
C1031      C1036   1.416       .  A
C1031      C1040   1.403       .  A
C1032      F1048   1.382       .  S
C1032      F1049   1.382       .  S
C1032      F1050   1.385       .  S
C1034      F1045   1.383       .  S
C1034      F1046   1.385       .  S
C1034      F1047   1.384       .  S
C1036      C1037   1.406       .  A
C1036      C1041   1.521       .  S
C1037      C1038   1.402       .  A
C1037      H1042   1.082       .  S
C1038      C1039   1.415       .  A
C1039      C1040   1.407       .  A
C1039      C1043   1.517       .  S
C1040      H1044   1.084       .  S
C1041      F1054   1.385       .  S
C1041      F1055   1.382       .  S
C1041      F1056   1.382       .  S
C1043      F1051   1.385       .  S
C1043      F1052   1.383       .  S
C1043      F1053   1.382       .  S
C1057      C1058   1.399       .  A
C1057      C1062   1.410       .  A
C1057      H1067   1.083       .  S
C1058      C1063   1.487       .  S
C1058      C1059   1.413       .  A
C1059      C1060   1.407       .  A
C1059      C1064   1.521       .  S
C1060      C1061   1.411       .  A
C1060      H1065   1.082       .  S
C1061      C1062   1.431       .  A
C1062      C1066   1.522       .  S
C1063      C1068   1.417       .  A
C1063      C1072   1.400       .  A
C1064      F1080   1.382       .  S
C1064      F1081   1.382       .  S
C1064      F1082   1.384       .  S
C1066      F1077   1.383       .  S
C1066      F1078   1.385       .  S
C1066      F1079   1.383       .  S
C1068      C1069   1.410       .  A
C1068      C1073   1.518       .  S
C1069      C1070   1.403       .  A
C1069      H1074   1.083       .  S
C1070      C1071   1.415       .  A
C1071      C1072   1.405       .  A
C1071      C1075   1.511       .  S
C1072      H1076   1.083       .  S
C1073      F1086   1.384       .  S
C1073      F1087   1.382       .  S
C1073      F1088   1.382       .  S
C1075      F1083   1.385       .  S
C1075      F1084   1.383       .  S
C1075      F1085   1.381       .  S
C1089      C1090   1.402       .  A
C1089      C1094   1.407       .  A
C1089      H1099   1.084       .  S
C1090      C1095   1.485   1_565  S
C1090      C1091   1.416       .  A
C1091      C1092   1.406       .  A
C1091      C1096   1.521       .  S
C1092      C1093   1.405       .  A
C1092      H1097   1.083       .  S
C1093      C1094   1.420       .  A
C1094      C1098   1.520       .  S
C1095      C1100   1.412       .  A
C1095      C1104   1.397       .  A
C1096      F1112   1.382   1_565  S
C1096      F1113   1.382   1_565  S
C1096      F1114   1.385       .  S
C1098      F1109   1.384       .  S
C1098      F1110   1.383       .  S
C1098      F1111   1.381       .  S
C1100      C1101   1.408       .  A
C1100      C1105   1.520       .  S
C1101      C1102   1.411       .  A
C1101      H1106   1.082       .  S
C1102      C1103   1.431       .  A
C1103      C1104   1.408       .  A
C1103      C1107   1.523       .  S
C1104      H1108   1.083       .  S
C1105      F1118   1.384       .  S
C1105      F1119   1.382       .  S
C1105      F1120   1.382       .  S
C1107      F1115   1.385       .  S
C1107      F1116   1.383       .  S
C1107      F1117   1.383       .  S
C1121      C1122   1.401       .  A
C1121      C1126   1.406       .  A
C1121      H1131   1.084       .  S
C1122      C1127   1.479       .  S
C1122      C1123   1.415       .  A
C1123      C1124   1.404       .  A
C1123      C1128   1.521       .  S
C1124      C1125   1.404       .  A
C1124      H1129   1.084       .  S
C1125      C1126   1.419       .  A
C1126      C1130   1.520       .  S
C1127      C1132   1.411       .  A
C1127      C1136   1.397       .  A
C1128      F1144   1.382       .  S
C1128      F1145   1.382       .  S
C1128      F1146   1.384       .  S
C1130      F1141   1.385       .  S
C1130      F1142   1.383       .  S
C1130      F1143   1.383       .  S
C1132      C1133   1.404       .  A
C1132      C1137   1.520       .  S
C1133      C1134   1.411       .  A
C1133      H1138   1.082       .  S
C1134      C1135   1.428       .  A
C1135      C1136   1.406       .  A
C1135      C1139   1.517       .  S
C1136      H1140   1.083       .  S
C1137      F1150   1.384       .  S
C1137      F1151   1.382       .  S
C1137      F1152   1.382       .  S
C1139      F1147   1.385       .  S
C1139      F1148   1.383       .  S
C1139      F1149   1.383       .  S
C1153      C1154   1.403       .  A
C1153      C1158   1.408       .  A
C1153      H1163   1.083       .  S
C1154      C1159   1.488       .  S
C1154      C1155   1.415       .  A
C1155      C1156   1.408       .  A
C1155      C1160   1.519       .  S
C1156      C1157   1.405       .  A
C1156      H1161   1.083       .  S
C1157      C1158   1.420       .  A
C1158      C1162   1.520       .  S
C1159      C1164   1.412       .  A
C1159      C1168   1.400       .  A
C1160      F1176   1.382       .  S
C1160      F1177   1.382       .  S
C1160      F1178   1.385       .  S
C1162      F1173   1.384       .  S
C1162      F1174   1.385       .  S
C1162      F1175   1.382       .  S
C1164      C1165   1.406       .  A
C1164      C1169   1.521       .  S
C1165      C1166   1.409       .  A
C1165      H1170   1.079       .  S
C1166      C1167   1.429       .  A
C1167      C1168   1.412       .  A
C1167      C1171   1.521       .  S
C1168      H1172   1.083       .  S
C1169      F1182   1.384       .  S
C1169      F1183   1.382       .  S
C1169      F1184   1.382       .  S
C1171      F1179   1.385       .  S
C1171      F1180   1.383       .  S
C1171      F1181   1.384       .  S
C1185      C1186   1.401       .  A
C1185      C1190   1.410       .  A
C1185      H1195   1.076       .  S
C1186      C1191   1.489       .  S
C1186      C1187   1.414       .  A
C1187      C1188   1.406       .  A
C1187      C1192   1.522       .  S
C1188      C1189   1.412       .  A
C1188      H1193   1.075       .  S
C1189      C1190   1.428       .  A
C1190      C1194   1.522       .  S
C1191      C1196   1.419       .  A
C1191      C1200   1.402       .  A
C1192      F1208   1.381       .  S
C1192      F1209   1.383       .  S
C1192      F1210   1.385       .  S
C1194      F1205   1.385       .  S
C1194      F1206   1.379       .  S
C1194      F1207   1.382       .  S
C1196      C1197   1.409       .  A
C1196      C1201   1.519       .  S
C1197      C1198   1.402       .  A
C1197      H1202   1.083       .  S
C1198      C1199   1.416       .  A
C1199      C1200   1.405       .  A
C1199      C1203   1.518       .  S
C1200      H1204   1.081       .  S
C1201      F1214   1.385       .  S
C1201      F1215   1.381       .  S
C1201      F1216   1.383       .  S
C1203      F1211   1.379       .  S
C1203      F1212   1.382       .  S
C1203      F1213   1.385       .  S
C1217      C1218   1.402       .  A
C1217      C1222   1.408       .  A
C1217      H1227   1.083       .  S
C1218      C1223   1.487   1_655  S
C1218      C1219   1.417       .  A
C1219      C1220   1.405       .  A
C1219      C1224   1.520       .  S
C1220      C1221   1.403       .  A
C1220      H1225   1.083       .  S
C1221      C1222   1.419       .  A
C1222      C1226   1.518       .  S
C1223      C1228   1.415       .  A
C1223      C1232   1.400       .  A
C1224      F1240   1.382   1_655  S
C1224      F1241   1.383   1_655  S
C1224      F1242   1.385       .  S
C1226      F1237   1.382       .  S
C1226      F1238   1.385       .  S
C1226      F1239   1.383       .  S
C1228      C1229   1.407       .  A
C1228      C1233   1.520       .  S
C1229      C1230   1.407       .  A
C1229      H1234   1.082       .  S
C1230      C1231   1.425       .  A
C1231      C1232   1.409       .  A
C1231      C1235   1.521       .  S
C1232      H1236   1.082       .  S
C1233      F1246   1.384       .  S
C1233      F1247   1.382       .  S
C1233      F1248   1.383   1_455  S
C1235      F1243   1.385       .  S
C1235      F1244   1.382       .  S
C1235      F1245   1.383       .  S
C1249      C1250   1.402       .  A
C1249      C1254   1.412       .  A
C1249      H1259   1.083       .  S
C1250      C1255   1.485   1_655  S
C1250      C1251   1.413       .  A
C1251      C1252   1.403       .  A
C1251      C1256   1.521       .  S
C1252      C1253   1.409       .  A
C1252      H1257   1.082       .  S
C1253      C1254   1.426       .  A
C1254      C1258   1.519       .  S
C1255      C1260   1.413       .  A
C1255      C1264   1.398       .  A
C1256      F1272   1.382       .  S
C1256      F1273   1.382   1_655  S
C1256      F1274   1.384       .  S
C1258      F1269   1.383       .  S
C1258      F1270   1.385       .  S
C1258      F1271   1.383       .  S
C1260      C1261   1.410       .  A
C1260      C1265   1.519       .  S
C1261      C1262   1.410       .  A
C1261      H1266   1.083       .  S
C1262      C1263   1.427       .  A
C1263      C1264   1.406       .  A
C1263      C1267   1.522       .  S
C1264      H1268   1.084       .  S
C1265      F1278   1.385       .  S
C1265      F1279   1.382       .  S
C1265      F1280   1.382       .  S
C1267      F1275   1.385       .  S
C1267      F1276   1.382       .  S
C1267      F1277   1.383       .  S
C1281      C1282   1.402       .  A
C1281      C1286   1.410       .  A
C1281      H1291   1.083       .  S
C1282      C1287   1.489       .  S
C1282      C1283   1.415       .  A
C1283      C1284   1.407       .  A
C1283      C1288   1.520       .  S
C1284      C1285   1.407       .  A
C1284      H1289   1.082       .  S
C1285      C1286   1.423       .  A
C1286      C1290   1.519       .  S
C1287      C1292   1.413       .  A
C1287      C1296   1.399       .  A
C1288      F1304   1.382       .  S
C1288      F1305   1.382       .  S
C1288      F1306   1.385       .  S
C1290      F1301   1.385       .  S
C1290      F1302   1.383       .  S
C1290      F1303   1.383       .  S
C1292      C1293   1.408       .  A
C1292      C1297   1.519       .  S
C1293      C1294   1.411       .  A
C1293      H1298   1.082       .  S
C1294      C1295   1.432       .  A
C1295      C1296   1.411       .  A
C1295      C1299   1.522       .  S
C1296      H1300   1.083       .  S
C1297      F1310   1.384       .  S
C1297      F1311   1.382       .  S
C1297      F1312   1.382       .  S
C1299      F1307   1.385       .  S
C1299      F1308   1.383       .  S
C1299      F1309   1.382       .  S
C1313      C1314   1.402       .  A
C1313      C1318   1.410       .  A
C1313      H1323   1.083       .  S
C1314      C1319   1.488       .  S
C1314      C1315   1.415       .  A
C1315      C1316   1.407       .  A
C1315      C1320   1.520       .  S
C1316      C1317   1.406       .  A
C1316      H1321   1.082       .  S
C1317      C1318   1.423       .  A
C1318      C1322   1.520       .  S
C1319      C1324   1.419       .  A
C1319      C1328   1.403       .  A
C1320      F1336   1.382       .  S
C1320      F1337   1.382       .  S
C1320      F1338   1.385       .  S
C1322      F1333   1.383       .  S
C1322      F1334   1.385       .  S
C1322      F1335   1.383       .  S
C1324      C1325   1.410       .  A
C1324      C1329   1.519       .  S
C1325      C1326   1.402       .  A
C1325      H1330   1.083       .  S
C1326      C1327   1.413       .  A
C1327      C1328   1.405       .  A
C1327      C1331   1.517       .  S
C1328      H1332   1.083       .  S
C1329      F1342   1.385       .  S
C1329      F1343   1.382       .  S
C1329      F1344   1.382       .  S
C1331      F1339   1.382       .  S
C1331      F1340   1.383       .  S
C1331      F1341   1.384       .  S
C1345      C1346   1.398       .  A
C1345      C1350   1.407       .  A
C1345      H1355   1.084       .  S
C1346      C1351   1.484       .  S
C1346      C1347   1.413       .  A
C1347      C1348   1.408       .  A
C1347      C1352   1.520       .  S
C1348      C1349   1.409       .  A
C1348      H1353   1.083       .  S
C1349      C1350   1.428       .  A
C1350      C1354   1.523       .  S
C1351      C1356   1.414       .  A
C1351      C1360   1.400       .  A
C1352      F1368   1.382       .  S
C1352      F1369   1.382       .  S
C1352      F1370   1.384       .  S
C1354      F1365   1.383       .  S
C1354      F1366   1.385       .  S
C1354      F1367   1.383       .  S
C1356      C1357   1.406       .  A
C1356      C1361   1.521       .  S
C1357      C1358   1.410       .  A
C1357      H1362   1.083       .  S
C1358      C1359   1.425       .  A
C1359      C1360   1.407       .  A
C1359      C1363   1.521       .  S
C1360      H1364   1.083       .  S
C1361      F1374   1.385       .  S
C1361      F1375   1.382       .  S
C1361      F1376   1.382       .  S
C1363      F1371   1.383       .  S
C1363      F1372   1.383       .  S
C1363      F1373   1.385       .  S
C1377      C1378   1.400       .  A
C1377      C1382   1.404       .  A
C1377      H1387   1.084       .  S
C1378      C1383   1.479       .  S
C1378      C1379   1.414       .  A
C1379      C1380   1.404       .  A
C1379      C1384   1.520       .  S
C1380      C1381   1.407       .  A
C1380      H1385   1.083       .  S
C1381      C1382   1.422       .  A
C1382      C1386   1.521       .  S
C1383      C1388   1.413       .  A
C1383      C1392   1.398       .  A
C1384      F1400   1.382       .  S
C1384      F1401   1.382       .  S
C1384      F1402   1.385       .  S
C1386      F1397   1.384       .  S
C1386      F1398   1.385       .  S
C1386      F1399   1.382       .  S
C1388      C1389   1.403       .  A
C1388      C1393   1.522       .  S
C1389      C1390   1.409       .  A
C1389      H1394   1.082       .  S
C1390      C1391   1.426       .  A
C1391      C1392   1.406       .  A
C1391      C1395   1.521       .  S
C1392      H1396   1.083       .  S
C1393      F1406   1.384       .  S
C1393      F1407   1.381       .  S
C1393      F1408   1.383       .  S
C1395      F1403   1.383       .  S
C1395      F1404   1.384       .  S
C1395      F1405   1.385       .  S
C1409      C1410   1.403       .  A
C1409      C1414   1.408       .  A
C1409      H1419   1.083       .  S
C1410      C1415   1.487       .  S
C1410      C1411   1.418       .  A
C1411      C1412   1.407       .  A
C1411      C1416   1.520       .  S
C1412      C1413   1.402       .  A
C1412      H1417   1.083       .  S
C1413      C1414   1.417       .  A
C1414      C1418   1.517       .  S
C1415      C1420   1.417       .  A
C1415      C1424   1.403       .  A
C1416      F1432   1.382       .  S
C1416      F1433   1.383       .  S
C1416      F1434   1.385       .  S
C1418      F1429   1.382       .  S
C1418      F1430   1.384       .  S
C1418      F1431   1.382       .  S
C1420      C1421   1.408       .  A
C1420      C1425   1.519       .  S
C1421      C1422   1.403       .  A
C1421      H1426   1.083       .  S
C1422      C1423   1.415       .  A
C1423      C1424   1.408       .  A
C1423      C1427   1.517       .  S
C1424      H1428   1.083       .  S
C1425      F1438   1.385       .  S
C1425      F1439   1.382       .  S
C1425      F1440   1.382       .  S
C1427      F1435   1.385       .  S
C1427      F1436   1.384       .  S
C1427      F1437   1.382       .  S
C1441      C1442   1.399       .  A
C1441      C1446   1.408       .  A
C1441      H1451   1.083       .  S
C1442      C1447   1.478       .  S
C1442      C1443   1.410       .  A
C1443      C1444   1.402       .  A
C1443      C1448   1.521       .  S
C1444      C1445   1.411       .  A
C1444      H1449   1.081       .  S
C1445      C1446   1.428       .  A
C1446      C1450   1.522       .  S
C1447      C1452   1.414       .  A
C1447      C1456   1.398       .  A
C1448      F1464   1.382       .  S
C1448      F1465   1.382       .  S
C1448      F1466   1.384       .  S
C1450      F1461   1.383       .  S
C1450      F1462   1.385       .  S
C1450      F1463   1.384       .  S
C1452      C1453   1.405       .  A
C1452      C1457   1.520       .  S
C1453      C1454   1.407       .  A
C1453      H1458   1.083       .  S
C1454      C1455   1.424       .  A
C1455      C1456   1.404       .  A
C1455      C1459   1.521       .  S
C1456      H1460   1.084       .  S
C1457      F1470   1.385       .  S
C1457      F1471   1.382       .  S
C1457      F1472   1.382       .  S
C1459      F1467   1.383       .  S
C1459      F1468   1.383       .  S
C1459      F1469   1.385       .  S
C1473      C1474   1.400       .  A
C1473      C1478   1.409       .  A
C1473      H1483   1.084       .  S
C1474      C1479   1.487       .  S
C1474      C1475   1.414       .  A
C1475      C1476   1.406       .  A
C1475      C1480   1.521       .  S
C1476      C1477   1.410       .  A
C1476      H1481   1.083       .  S
C1477      C1478   1.426       .  A
C1478      C1482   1.520       .  S
C1479      C1484   1.415       .  A
C1479      C1488   1.400       .  A
C1480      F1496   1.382       .  S
C1480      F1497   1.382       .  S
C1480      F1498   1.385       .  S
C1482      F1493   1.385       .  S
C1482      F1494   1.383       .  S
C1482      F1495   1.382       .  S
C1484      C1485   1.408       .  A
C1484      C1489   1.519       .  S
C1485      C1486   1.408       .  A
C1485      H1490   1.082       .  S
C1486      C1487   1.424       .  A
C1487      C1488   1.406       .  A
C1487      C1491   1.520       .  S
C1488      H1492   1.083       .  S
C1489      F1502   1.385       .  S
C1489      F1503   1.382       .  S
C1489      F1504   1.382       .  S
C1491      F1499   1.385       .  S
C1491      F1500   1.383       .  S
C1491      F1501   1.383       .  S
C1505      C1506   1.397       .  A
C1505      C1510   1.407       .  A
C1505      H1515   1.083       .  S
C1506      C1511   1.486       .  S
C1506      C1507   1.412       .  A
C1507      C1508   1.409       .  A
C1507      C1512   1.520       .  S
C1508      C1509   1.412       .  A
C1508      H1513   1.082       .  S
C1509      C1510   1.431       .  A
C1510      C1514   1.522       .  S
C1511      C1516   1.416       .  A
C1511      C1520   1.402       .  A
C1512      F1528   1.382       .  S
C1512      F1529   1.382       .  S
C1512      F1530   1.384       .  S
C1514      F1525   1.381       .  S
C1514      F1526   1.385       .  S
C1514      F1527   1.383       .  S
C1516      C1517   1.406       .  A
C1516      C1521   1.521       .  S
C1517      C1518   1.406       .  A
C1517      H1522   1.084       .  S
C1518      C1519   1.421       .  A
C1519      C1520   1.409       .  A
C1519      C1523   1.520       .  S
C1520      H1524   1.083       .  S
C1521      F1534   1.385       .  S
C1521      F1535   1.382       .  S
C1521      F1536   1.382       .  S
C1523      F1531   1.383       .  S
C1523      F1532   1.384       .  S
C1523      F1533   1.384       .  S
C1537      C1538   1.399       .  A
C1537      C1542   1.409       .  A
C1537      H1547   1.083       .  S
C1538      C1543   1.487       .  S
C1538      C1539   1.413       .  A
C1539      C1540   1.406       .  A
C1539      C1544   1.519       .  S
C1540      C1541   1.411       .  A
C1540      H1545   1.081       .  S
C1541      C1542   1.429       .  A
C1542      C1546   1.521       .  S
C1543      C1548   1.418       .  A
C1543      C1552   1.402       .  A
C1544      F1560   1.382       .  S
C1544      F1561   1.382       .  S
C1544      F1562   1.385       .  S
C1546      F1557   1.383       .  S
C1546      F1558   1.385       .  S
C1546      F1559   1.383       .  S
C1548      C1549   1.407       .  A
C1548      C1553   1.520       .  S
C1549      C1550   1.401       .  A
C1549      H1554   1.084       .  S
C1550      C1551   1.416       .  A
C1551      C1552   1.409       .  A
C1551      C1555   1.514       .  S
C1552      H1556   1.083       .  S
C1553      F1566   1.384       .  S
C1553      F1567   1.382       .  S
C1553      F1568   1.383       .  S
C1555      F1563   1.379       .  S
C1555      F1564   1.382       .  S
C1555      F1565   1.385       .  S
C1569      C1570   1.400       .  A
C1569      C1574   1.408       .  A
C1569      H1579   1.084       .  S
C1570      C1575   1.480       .  S
C1570      C1571   1.414       .  A
C1571      C1572   1.403       .  A
C1571      C1576   1.521       .  S
C1572      C1573   1.406       .  A
C1572      H1577   1.083       .  S
C1573      C1574   1.423       .  A
C1574      C1578   1.519       .  S
C1575      C1580   1.411       .  A
C1575      C1584   1.397       .  A
C1576      F1592   1.382       .  S
C1576      F1593   1.382       .  S
C1576      F1594   1.384       .  S
C1578      F1589   1.382       .  S
C1578      F1590   1.385       .  S
C1578      F1591   1.383       .  S
C1580      C1581   1.406       .  A
C1580      C1585   1.519       .  S
C1581      C1582   1.410       .  A
C1581      H1586   1.083       .  S
C1582      C1583   1.430       .  A
C1583      C1584   1.406       .  A
C1583      C1587   1.523       .  S
C1584      H1588   1.083       .  S
C1585      F1598   1.384       .  S
C1585      F1599   1.382       .  S
C1585      F1600   1.382       .  S
C1587      F1595   1.383       .  S
C1587      F1596   1.384       .  S
C1587      F1597   1.385       .  S
C1601      C1602   1.398       .  A
C1601      C1606   1.405       .  A
C1601      H1611   1.083       .  S
C1602      C1607   1.484       .  S
C1602      C1603   1.415       .  A
C1603      C1604   1.409       .  A
C1603      C1608   1.518       .  S
C1604      C1605   1.404       .  A
C1604      H1609   1.082       .  S
C1605      C1606   1.424       .  A
C1606      C1610   1.521       .  S
C1607      C1612   1.416       .  A
C1607      C1616   1.402       .  A
C1608      F1624   1.382       .  S
C1608      F1625   1.382       .  S
C1608      F1626   1.384       .  S
C1610      F1621   1.385       .  S
C1610      F1622   1.382       .  S
C1610      F1623   1.380       .  S
C1612      C1613   1.406       .  A
C1612      C1617   1.520       .  S
C1613      C1614   1.405       .  A
C1613      H1618   1.084       .  S
C1614      C1615   1.418       .  A
C1615      C1616   1.408       .  A
C1615      C1619   1.517       .  S
C1616      H1620   1.083       .  S
C1617      F1630   1.385       .  S
C1617      F1631   1.382       .  S
C1617      F1632   1.382       .  S
C1619      F1627   1.382       .  S
C1619      F1628   1.383       .  S
C1619      F1629   1.385       .  S
C1633      C1634   1.401       .  A
C1633      C1638   1.408       .  A
C1633      H1643   1.083       .  S
C1634      C1639   1.479   1_545  S
C1634      C1635   1.415       .  A
C1635      C1636   1.404       .  A
C1635      C1640   1.522       .  S
C1636      C1637   1.403       .  A
C1636      H1641   1.082       .  S
C1637      C1638   1.420       .  A
C1638      C1642   1.519       .  S
C1639      C1644   1.412       .  A
C1639      C1648   1.400       .  A
C1640      F1656   1.383   1_545  S
C1640      F1657   1.381   1_545  S
C1640      F1658   1.384       .  S
C1642      F1653   1.385       .  S
C1642      F1654   1.382       .  S
C1642      F1655   1.383       .  S
C1644      C1645   1.405       .  A
C1644      C1649   1.518       .  S
C1645      C1646   1.404       .  A
C1645      H1650   1.083       .  S
C1646      C1647   1.423       .  A
C1647      C1648   1.406       .  A
C1647      C1651   1.521       .  S
C1648      H1652   1.083       .  S
C1649      F1662   1.384       .  S
C1649      F1663   1.383       .  S
C1649      F1664   1.381   1_565  S
C1651      F1659   1.383       .  S
C1651      F1660   1.383       .  S
C1651      F1661   1.385       .  S
C1665      C1666   1.402       .  A
C1665      C1670   1.407       .  A
C1665      H1675   1.083       .  S
C1666      C1671   1.480       .  S
C1666      C1667   1.415       .  A
C1667      C1668   1.404       .  A
C1667      C1672   1.521       .  S
C1668      C1669   1.403       .  A
C1668      H1673   1.081       .  S
C1669      C1670   1.417       .  A
C1670      C1674   1.519       .  S
C1671      C1676   1.413       .  A
C1671      C1680   1.400       .  A
C1672      F1688   1.382       .  S
C1672      F1689   1.382       .  S
C1672      F1690   1.385       .  S
C1674      F1685   1.382       .  S
C1674      F1686   1.385       .  S
C1674      F1687   1.384       .  S
C1676      C1677   1.405       .  A
C1676      C1681   1.520       .  S
C1677      C1678   1.406       .  A
C1677      H1682   1.083       .  S
C1678      C1679   1.422       .  A
C1679      C1680   1.407       .  A
C1679      C1683   1.519       .  S
C1680      H1684   1.083       .  S
C1681      F1694   1.384       .  S
C1681      F1695   1.382       .  S
C1681      F1696   1.382       .  S
C1683      F1691   1.385       .  S
C1683      F1692   1.383       .  S
C1683      F1693   1.383       .  S
C1697      C1698   1.403       .  A
C1697      C1702   1.407       .  A
C1697      H1707   1.084       .  S
C1698      C1703   1.483       .  S
C1698      C1699   1.416       .  A
C1699      C1700   1.406       .  A
C1699      C1704   1.520       .  S
C1700      C1701   1.402       .  A
C1700      H1705   1.084       .  S
C1701      C1702   1.413       .  A
C1702      C1706   1.516       .  S
C1703      C1708   1.416       .  A
C1703      C1712   1.403       .  A
C1704      F1720   1.382       .  S
C1704      F1721   1.382       .  S
C1704      F1722   1.385       .  S
C1706      F1717   1.382       .  S
C1706      F1718   1.384       .  S
C1706      F1719   1.383       .  S
C1708      C1709   1.405       .  A
C1708      C1713   1.520       .  S
C1709      C1710   1.402       .  A
C1709      H1714   1.084       .  S
C1710      C1711   1.416       .  A
C1711      C1712   1.408       .  A
C1711      C1715   1.518       .  S
C1712      H1716   1.083       .  S
C1713      F1726   1.385       .  S
C1713      F1727   1.382       .  S
C1713      F1728   1.382       .  S
C1715      F1723   1.385       .  S
C1715      F1724   1.383       .  S
C1715      F1725   1.382       .  S
C1729      C1730   1.404       .  A
C1729      C1734   1.412       .  A
C1729      H1739   1.083       .  S
C1730      C1735   1.487   1_655  S
C1730      C1731   1.415       .  A
C1731      C1732   1.404       .  A
C1731      C1736   1.522       .  S
C1732      C1733   1.406       .  A
C1732      H1737   1.083       .  S
C1733      C1734   1.421       .  A
C1734      C1738   1.519       .  S
C1735      C1740   1.412       .  A
C1735      C1744   1.396       .  A
C1736      F1752   1.382   1_655  S
C1736      F1753   1.382   1_655  S
C1736      F1754   1.385       .  S
C1738      F1749   1.383       .  S
C1738      F1750   1.385       .  S
C1738      F1751   1.382       .  S
C1740      C1741   1.410       .  A
C1740      C1745   1.518       .  S
C1741      C1742   1.411       .  A
C1741      H1746   1.083       .  S
C1742      C1743   1.433       .  A
C1743      C1744   1.407       .  A
C1743      C1747   1.524       .  S
C1744      H1748   1.084       .  S
C1745      F1758   1.384       .  S
C1745      F1759   1.383       .  S
C1745      F1760   1.382       .  S
C1747      F1755   1.385       .  S
C1747      F1756   1.384       .  S
C1747      F1757   1.384       .  S
C1761      C1762   1.400       .  A
C1761      C1766   1.408       .  A
C1761      H1771   1.083       .  S
C1762      C1767   1.483       .  S
C1762      C1763   1.411       .  A
C1763      C1764   1.404       .  A
C1763      C1768   1.521       .  S
C1764      C1765   1.412       .  A
C1764      H1769   1.082       .  S
C1765      C1766   1.427       .  A
C1766      C1770   1.520       .  S
C1767      C1772   1.415       .  A
C1767      C1776   1.402       .  A
C1768      F1784   1.382       .  S
C1768      F1785   1.382       .  S
C1768      F1786   1.385       .  S
C1770      F1781   1.381       .  S
C1770      F1782   1.385       .  S
C1770      F1783   1.383       .  S
C1772      C1773   1.404       .  A
C1772      C1777   1.520       .  S
C1773      C1774   1.404       .  A
C1773      H1778   1.080       .  S
C1774      C1775   1.420       .  A
C1775      C1776   1.407       .  A
C1775      C1779   1.519       .  S
C1776      H1780   1.082       .  S
C1777      F1790   1.385       .  S
C1777      F1791   1.382       .  S
C1777      F1792   1.383       .  S
C1779      F1787   1.385       .  S
C1779      F1788   1.382       .  S
C1779      F1789   1.384       .  S
C1793      C1794   1.398       .  A
C1793      C1798   1.406       .  A
C1793      H1803   1.083       .  S
C1794      C1799   1.482       .  S
C1794      C1795   1.413       .  A
C1795      C1796   1.407       .  A
C1795      C1800   1.519       .  S
C1796      C1797   1.409       .  A
C1796      H1801   1.083       .  S
C1797      C1798   1.425       .  A
C1798      C1802   1.518       .  S
C1799      C1804   1.415       .  A
C1799      C1808   1.401       .  A
C1800      F1816   1.382       .  S
C1800      F1817   1.383       .  S
C1800      F1818   1.384       .  S
C1802      F1813   1.381       .  S
C1802      F1814   1.385       .  S
C1802      F1815   1.376       .  S
C1804      C1805   1.405       .  A
C1804      C1809   1.520       .  S
C1805      C1806   1.405       .  A
C1805      H1810   1.082       .  S
C1806      C1807   1.421       .  A
C1807      C1808   1.406       .  A
C1807      C1811   1.519       .  S
C1808      H1812   1.084       .  S
C1809      F1822   1.385       .  S
C1809      F1823   1.381       .  S
C1809      F1824   1.382       .  S
C1811      F1819   1.385       .  S
C1811      F1820   1.382       .  S
C1811      F1821   1.381       .  S
C1825      C1826   1.400       .  A
C1825      C1830   1.408       .  A
C1825      H1835   1.083       .  S
C1826      C1831   1.482   1_655  S
C1826      C1827   1.413       .  A
C1827      C1828   1.403       .  A
C1827      C1832   1.521       .  S
C1828      C1829   1.409       .  A
C1828      H1833   1.082       .  S
C1829      C1830   1.424       .  A
C1830      C1834   1.520       .  S
C1831      C1836   1.416       .  A
C1831      C1840   1.402       .  A
C1832      F1848   1.382   1_655  S
C1832      F1849   1.383   1_655  S
C1832      F1850   1.385       .  S
C1834      F1845   1.383       .  S
C1834      F1846   1.385       .  S
C1834      F1847   1.383       .  S
C1836      C1837   1.403       .  A
C1836      C1841   1.520       .  S
C1837      C1838   1.402       .  A
C1837      H1842   1.083       .  S
C1838      C1839   1.416       .  A
C1839      C1840   1.408       .  A
C1839      C1843   1.518       .  S
C1840      H1844   1.083       .  S
C1841      F1854   1.384       .  S
C1841      F1855   1.382       .  S
C1841      F1856   1.383       .  S
C1843      F1851   1.385       .  S
C1843      F1852   1.383       .  S
C1843      F1853   1.382       .  S
C1857      C1858   1.398       .  A
C1857      C1862   1.406       .  A
C1857      H1867   1.083       .  S
C1858      C1863   1.486   1_565  S
C1858      C1859   1.414       .  A
C1859      C1860   1.409       .  A
C1859      C1864   1.518       .  S
C1860      C1861   1.409       .  A
C1860      H1865   1.083       .  S
C1861      C1862   1.427       .  A
C1862      C1866   1.521       .  S
C1863      C1868   1.416       .  A
C1863      C1872   1.403       .  A
C1864      F1880   1.382       .  S
C1864      F1881   1.383       .  S
C1864      F1882   1.384       .  S
C1866      F1877   1.385       .  S
C1866      F1878   1.379       .  S
C1866      F1879   1.383       .  S
C1868      C1869   1.405       .  A
C1868      C1873   1.520       .  S
C1869      C1870   1.403       .  A
C1869      H1874   1.082       .  S
C1870      C1871   1.419       .  A
C1871      C1872   1.409       .  A
C1871      C1875   1.519       .  S
C1872      H1876   1.083       .  S
C1873      F1886   1.385       .  S
C1873      F1887   1.382       .  S
C1873      F1888   1.383       .  S
C1875      F1883   1.383       .  S
C1875      F1884   1.383       .  S
C1875      F1885   1.385       .  S
C1889      C1890   1.399       .  A
C1889      C1894   1.408       .  A
C1889      H1899   1.083       .  S
C1890      C1895   1.482       .  S
C1890      C1891   1.412       .  A
C1891      C1892   1.406       .  A
C1891      C1896   1.519       .  S
C1892      C1893   1.409       .  A
C1892      H1897   1.082       .  S
C1893      C1894   1.423       .  A
C1894      C1898   1.516       .  S
C1895      C1900   1.416       .  A
C1895      C1904   1.403       .  A
C1896      F1912   1.382       .  S
C1896      F1913   1.382       .  S
C1896      F1914   1.385       .  S
C1898      F1909   1.381       .  S
C1898      F1910   1.385       .  S
C1898      F1911   1.383       .  S
C1900      C1901   1.406       .  A
C1900      C1905   1.520       .  S
C1901      C1902   1.403       .  A
C1901      H1906   1.083       .  S
C1902      C1903   1.416       .  A
C1903      C1904   1.407       .  A
C1903      C1907   1.518       .  S
C1904      H1908   1.083       .  S
C1905      F1918   1.385       .  S
C1905      F1919   1.382       .  S
C1905      F1920   1.381       .  S
C1907      F1915   1.385       .  S
C1907      F1916   1.382       .  S
C1907      F1917   1.383       .  S
C1921      C1922   1.400       .  A
C1921      C1926   1.404       .  A
C1921      H1931   1.083       .  S
C1922      C1927   1.480       .  S
C1922      C1923   1.414       .  A
C1923      C1924   1.406       .  A
C1923      C1928   1.520       .  S
C1924      C1925   1.406       .  A
C1924      H1929   1.080       .  S
C1925      C1926   1.419       .  A
C1926      C1930   1.516       .  S
C1927      C1932   1.413       .  A
C1927      C1936   1.399       .  A
C1928      F1944   1.381       .  S
C1928      F1945   1.382       .  S
C1928      F1946   1.385       .  S
C1930      F1941   1.378       .  S
C1930      F1942   1.385       .  S
C1930      F1943   1.384       .  S
C1932      C1933   1.405       .  A
C1932      C1937   1.520       .  S
C1933      C1934   1.409       .  A
C1933      H1938   1.083       .  S
C1934      C1935   1.424       .  A
C1935      C1936   1.405       .  A
C1935      C1939   1.520       .  S
C1936      H1940   1.084       .  S
C1937      F1950   1.385       .  S
C1937      F1951   1.382       .  S
C1937      F1952   1.382       .  S
C1939      F1947   1.385       .  S
C1939      F1948   1.383       .  S
C1939      F1949   1.384       .  S
C1953      C1954   1.401       .  A
C1953      C1958   1.406       .  A
C1953      H1963   1.084       .  S
C1954      C1959   1.481       .  S
C1954      C1955   1.415       .  A
C1955      C1956   1.406       .  A
C1955      C1960   1.520       .  S
C1956      C1957   1.403       .  A
C1956      H1961   1.082       .  S
C1957      C1958   1.418       .  A
C1958      C1962   1.520       .  S
C1959      C1964   1.415       .  A
C1959      C1968   1.402       .  A
C1960      F1976   1.382       .  S
C1960      F1977   1.382       .  S
C1960      F1978   1.385       .  S
C1962      F1973   1.385       .  S
C1962      F1974   1.379       .  S
C1962      F1975   1.384       .  S
C1964      C1965   1.407       .  A
C1964      C1969   1.520       .  S
C1965      C1966   1.404       .  A
C1965      H1970   1.084       .  S
C1966      C1967   1.417       .  A
C1967      C1968   1.405       .  A
C1967      C1971   1.520       .  S
C1968      H1972   1.084       .  S
C1969      F1982   1.385       .  S
C1969      F1983   1.382       .  S
C1969      F1984   1.382       .  S
C1971      F1979   1.382       .  S
C1971      F1980   1.383       .  S
C1971      F1981   1.385       .  S
C1985      C1986   1.397       .  A
C1985      C1990   1.407       .  A
C1985      H1995   1.084       .  S
C1986      C1991   1.478   1_556  S
C1986      C1987   1.410       .  A
C1987      C1988   1.404       .  A
C1987      C1992   1.520       .  S
C1988      C1989   1.410       .  A
C1988      H1993   1.083       .  S
C1989      C1990   1.429       .  A
C1990      C1994   1.522       .  S
C1991      C1996   1.415       .  A
C1991      C2000   1.401       .  A
C1992      F2008   1.382   1_556  S
C1992      F2009   1.382   1_556  S
C1992      F2010   1.384       .  S
C1994      F2005   1.383       .  S
C1994      F2006   1.385       .  S
C1994      F2007   1.384       .  S
C1996      C1997   1.403       .  A
C1996      C2001   1.521       .  S
C1997      C1998   1.403       .  A
C1997      H2002   1.083       .  S
C1998      C1999   1.418       .  A
C1999      C2000   1.406       .  A
C1999      C2003   1.517       .  S
C2000      H2004   1.083       .  S
C2001      F2014   1.385       .  S
C2001      F2015   1.382   1_554  S
C2001      F2016   1.382   1_554  S
C2003      F2011   1.385       .  S
C2003      F2012   1.383       .  S
C2003      F2013   1.382       .  S
C2017      C2018   1.402       .  A
C2017      C2022   1.408       .  A
C2017      H2027   1.083       .  S
C2018      C2023   1.482   1_556  S
C2018      C2019   1.414       .  A
C2019      C2020   1.405       .  A
C2019      C2024   1.521       .  S
C2020      C2021   1.407       .  A
C2020      H2025   1.082       .  S
C2021      C2022   1.421       .  A
C2022      C2026   1.520       .  S
C2023      C2028   1.417       .  A
C2023      C2032   1.402       .  A
C2024      F2040   1.382       .  S
C2024      F2041   1.381       .  S
C2024      F2042   1.385       .  S
C2026      F2037   1.382       .  S
C2026      F2038   1.385       .  S
C2026      F2039   1.384       .  S
C2028      C2029   1.410       .  A
C2028      C2033   1.519       .  S
C2029      C2030   1.403       .  A
C2029      H2034   1.084       .  S
C2030      C2031   1.413       .  A
C2031      C2032   1.403       .  A
C2031      C2035   1.517       .  S
C2032      H2036   1.084       .  S
C2033      F2046   1.385       .  S
C2033      F2047   1.382       .  S
C2033      F2048   1.381       .  S
C2035      F2043   1.385       .  S
C2035      F2044   1.382       .  S
C2035      F2045   1.383       .  S
C2049      C2050   1.402       .  A
C2049      C2054   1.409       .  A
C2049      H2059   1.083       .  S
C2050      C2055   1.486       .  S
C2050      C2051   1.417       .  A
C2051      C2052   1.409       .  A
C2051      C2056   1.520       .  S
C2052      C2053   1.404       .  A
C2052      H2057   1.083       .  S
C2053      C2054   1.418       .  A
C2054      C2058   1.518       .  S
C2055      C2060   1.414       .  A
C2055      C2064   1.402       .  A
C2056      F2072   1.382       .  S
C2056      F2073   1.382       .  S
C2056      F2074   1.384       .  S
C2058      F2069   1.381       .  S
C2058      F2070   1.384       .  S
C2058      F2071   1.384       .  S
C2060      C2061   1.405       .  A
C2060      C2065   1.520       .  S
C2061      C2062   1.408       .  A
C2061      H2066   1.083       .  S
C2062      C2063   1.423       .  A
C2063      C2064   1.410       .  A
C2063      C2067   1.520       .  S
C2064      H2068   1.083       .  S
C2065      F2078   1.385       .  S
C2065      F2079   1.383       .  S
C2065      F2080   1.382       .  S
C2067      F2075   1.385       .  S
C2067      F2076   1.384       .  S
C2067      F2077   1.382       .  S
C2081      C2082   1.399       .  A
C2081      C2086   1.406       .  A
C2081      H2091   1.083       .  S
C2082      C2087   1.478       .  S
C2082      C2083   1.413       .  A
C2083      C2084   1.404       .  A
C2083      C2088   1.521       .  S
C2084      C2085   1.408       .  A
C2084      H2089   1.082       .  S
C2085      C2086   1.423       .  A
C2086      C2090   1.520       .  S
C2087      C2092   1.416       .  A
C2087      C2096   1.401       .  A
C2088      F2104   1.382       .  S
C2088      F2105   1.382       .  S
C2088      F2106   1.385       .  S
C2090      F2101   1.383       .  S
C2090      F2102   1.385       .  S
C2090      F2103   1.384       .  S
C2092      C2093   1.404       .  A
C2092      C2097   1.520       .  S
C2093      C2094   1.401       .  A
C2093      H2098   1.084       .  S
C2094      C2095   1.415       .  A
C2095      C2096   1.406       .  A
C2095      C2099   1.517       .  S
C2096      H2100   1.083       .  S
C2097      F2110   1.384       .  S
C2097      F2111   1.382       .  S
C2097      F2112   1.382       .  S
C2099      F2107   1.384       .  S
C2099      F2108   1.384       .  S
C2099      F2109   1.382       .  S
C2113      C2114   1.399       .  A
C2113      C2118   1.406       .  A
C2113      H2123   1.084       .  S
C2114      C2119   1.481       .  S
C2114      C2115   1.412       .  A
C2115      C2116   1.405       .  A
C2115      C2120   1.520       .  S
C2116      C2117   1.408       .  A
C2116      H2121   1.082       .  S
C2117      C2118   1.425       .  A
C2118      C2122   1.520       .  S
C2119      C2124   1.415       .  A
C2119      C2128   1.400       .  A
C2120      F2136   1.382       .  S
C2120      F2137   1.382       .  S
C2120      F2138   1.385       .  S
C2122      F2133   1.385       .  S
C2122      F2134   1.383       .  S
C2122      F2135   1.383       .  S
C2124      C2125   1.406       .  A
C2124      C2129   1.520       .  S
C2125      C2126   1.404       .  A
C2125      H2130   1.084       .  S
C2126      C2127   1.421       .  A
C2127      C2128   1.406       .  A
C2127      C2131   1.518       .  S
C2128      H2132   1.084       .  S
C2129      F2142   1.384       .  S
C2129      F2143   1.382       .  S
C2129      F2144   1.382       .  S
C2131      F2139   1.385       .  S
C2131      F2140   1.381       .  S
C2131      F2141   1.382       .  S
C2145      C2146   1.398       .  A
C2145      C2150   1.407       .  A
C2145      H2155   1.083       .  S
C2146      C2151   1.480       .  S
C2146      C2147   1.412       .  A
C2147      C2148   1.404       .  A
C2147      C2152   1.521       .  S
C2148      C2149   1.410       .  A
C2148      H2153   1.081       .  S
C2149      C2150   1.428       .  A
C2150      C2154   1.522       .  S
C2151      C2156   1.414       .  A
C2151      C2160   1.400       .  A
C2152      F2168   1.382       .  S
C2152      F2169   1.382       .  S
C2152      F2170   1.385       .  S
C2154      F2165   1.383       .  S
C2154      F2166   1.385       .  S
C2154      F2167   1.383       .  S
C2156      C2157   1.406       .  A
C2156      C2161   1.520       .  S
C2157      C2158   1.406       .  A
C2157      H2162   1.084       .  S
C2158      C2159   1.421       .  A
C2159      C2160   1.405       .  A
C2159      C2163   1.522       .  S
C2160      H2164   1.084       .  S
C2161      F2174   1.384       .  S
C2161      F2175   1.382       .  S
C2161      F2176   1.382       .  S
C2163      F2171   1.384       .  S
C2163      F2172   1.384       .  S
C2163      F2173   1.383       .  S
C2177      C2178   1.402       .  A
C2177      C2182   1.410       .  A
C2177      H2187   1.083       .  S
C2178      C2183   1.487       .  S
C2178      C2179   1.417       .  A
C2179      C2180   1.408       .  A
C2179      C2184   1.520       .  S
C2180      C2181   1.404       .  A
C2180      H2185   1.083       .  S
C2181      C2182   1.420       .  A
C2182      C2186   1.518       .  S
C2183      C2188   1.414       .  A
C2183      C2192   1.401       .  A
C2184      F2200   1.383       .  S
C2184      F2201   1.382       .  S
C2184      F2202   1.384       .  S
C2186      F2197   1.384       .  S
C2186      F2198   1.381       .  S
C2186      F2199   1.383       .  S
C2188      C2189   1.408       .  A
C2188      C2193   1.518       .  S
C2189      C2190   1.406       .  A
C2189      H2194   1.083       .  S
C2190      C2191   1.423       .  A
C2191      C2192   1.409       .  A
C2191      C2195   1.520       .  S
C2192      H2196   1.083       .  S
C2193      F2206   1.384       .  S
C2193      F2207   1.383       .  S
C2193      F2208   1.382       .  S
C2195      F2203   1.385       .  S
C2195      F2204   1.383       .  S
C2195      F2205   1.383       .  S
C2209      C2210   1.401       .  A
C2209      C2214   1.409       .  A
C2209      H2219   1.083       .  S
C2210      C2215   1.485       .  S
C2210      C2211   1.413       .  A
C2211      C2212   1.405       .  A
C2211      C2216   1.521       .  S
C2212      C2213   1.410       .  A
C2212      H2217   1.083       .  S
C2213      C2214   1.424       .  A
C2214      C2218   1.520       .  S
C2215      C2220   1.413       .  A
C2215      C2224   1.399       .  A
C2216      F2232   1.382       .  S
C2216      F2233   1.382       .  S
C2216      F2234   1.385       .  S
C2218      F2229   1.385       .  S
C2218      F2230   1.383       .  S
C2218      F2231   1.383       .  S
C2220      C2221   1.405       .  A
C2220      C2225   1.521       .  S
C2221      C2222   1.411       .  A
C2221      H2226   1.082       .  S
C2222      C2223   1.428       .  A
C2223      C2224   1.409       .  A
C2223      C2227   1.521       .  S
C2224      H2228   1.083       .  S
C2225      F2238   1.385       .  S
C2225      F2239   1.382       .  S
C2225      F2240   1.382       .  S
C2227      F2235   1.385       .  S
C2227      F2236   1.383       .  S
C2227      F2237   1.383       .  S
C2241      C2242   1.399       .  A
C2241      C2246   1.406       .  A
C2241      H2251   1.083       .  S
C2242      C2247   1.484       .  S
C2242      C2243   1.415       .  A
C2243      C2244   1.407       .  A
C2243      C2248   1.520       .  S
C2244      C2245   1.407       .  A
C2244      H2249   1.083       .  S
C2245      C2246   1.423       .  A
C2246      C2250   1.517       .  S
C2247      C2252   1.415       .  A
C2247      C2256   1.399       .  A
C2248      F2264   1.382       .  S
C2248      F2265   1.382       .  S
C2248      F2266   1.384       .  S
C2250      F2261   1.382       .  S
C2250      F2262   1.385       .  S
C2250      F2263   1.380       .  S
C2252      C2253   1.408       .  A
C2252      C2257   1.519       .  S
C2253      C2254   1.407       .  A
C2253      H2258   1.082       .  S
C2254      C2255   1.423       .  A
C2255      C2256   1.405       .  A
C2255      C2259   1.519       .  S
C2256      H2260   1.084       .  S
C2257      F2270   1.385       .  S
C2257      F2271   1.382       .  S
C2257      F2272   1.382       .  S
C2259      F2267   1.385       .  S
C2259      F2268   1.380       .  S
C2259      F2269   1.383       .  S
C2273      C2274   1.398       .  A
C2273      C2278   1.408       .  A
C2273      H2283   1.083       .  S
C2274      C2279   1.482       .  S
C2274      C2275   1.411       .  A
C2275      C2276   1.406       .  A
C2275      C2280   1.521       .  S
C2276      C2277   1.411       .  A
C2276      H2281   1.082       .  S
C2277      C2278   1.430       .  A
C2278      C2282   1.523       .  S
C2279      C2284   1.412       .  A
C2279      C2288   1.397       .  A
C2280      F2296   1.382       .  S
C2280      F2297   1.382       .  S
C2280      F2298   1.384       .  S
C2282      F2293   1.383       .  S
C2282      F2294   1.385       .  S
C2282      F2295   1.383       .  S
C2284      C2285   1.406       .  A
C2284      C2289   1.520       .  S
C2285      C2286   1.410       .  A
C2285      H2290   1.083       .  S
C2286      C2287   1.429       .  A
C2287      C2288   1.405       .  A
C2287      C2291   1.522       .  S
C2288      H2292   1.084       .  S
C2289      F2302   1.385       .  S
C2289      F2303   1.382       .  S
C2289      F2304   1.382       .  S
C2291      F2299   1.385       .  S
C2291      F2300   1.379       .  S
C2291      F2301   1.383       .  S
C2305      C2306   1.402       .  A
C2305      C2310   1.413       .  A
C2305      H2315   1.083       .  S
C2306      C2311   1.488       .  S
C2306      C2307   1.414       .  A
C2307      C2308   1.403       .  A
C2307      C2312   1.521       .  S
C2308      C2309   1.408       .  A
C2308      H2313   1.081       .  S
C2309      C2310   1.427       .  A
C2310      C2314   1.522       .  S
C2311      C2316   1.413       .  A
C2311      C2320   1.399       .  A
C2312      F2328   1.382       .  S
C2312      F2329   1.382       .  S
C2312      F2330   1.384       .  S
C2314      F2325   1.383       .  S
C2314      F2326   1.385       .  S
C2314      F2327   1.384       .  S
C2316      C2317   1.409       .  A
C2316      C2321   1.520       .  S
C2317      C2318   1.412       .  A
C2317      H2322   1.082       .  S
C2318      C2319   1.428       .  A
C2319      C2320   1.409       .  A
C2319      C2323   1.520       .  S
C2320      H2324   1.083       .  S
C2321      F2334   1.385       .  S
C2321      F2335   1.382       .  S
C2321      F2336   1.383       .  S
C2323      F2331   1.385       .  S
C2323      F2332   1.383       .  S
C2323      F2333   1.384       .  S
C2337      C2338   1.400       .  A
C2337      C2342   1.404       .  A
C2337      H2347   1.083       .  S
C2338      C2343   1.480       .  S
C2338      C2339   1.414       .  A
C2339      C2340   1.406       .  A
C2339      C2344   1.519       .  S
C2340      C2341   1.406       .  A
C2340      H2345   1.083       .  S
C2341      C2342   1.422       .  A
C2342      C2346   1.520       .  S
C2343      C2348   1.412       .  A
C2343      C2352   1.397       .  A
C2344      F2360   1.382       .  S
C2344      F2361   1.381       .  S
C2344      F2362   1.384       .  S
C2346      F2357   1.385       .  S
C2346      F2358   1.382       .  S
C2346      F2359   1.382       .  S
C2348      C2349   1.406       .  A
C2348      C2353   1.520       .  S
C2349      C2350   1.412       .  A
C2349      H2354   1.083       .  S
C2350      C2351   1.427       .  A
C2351      C2352   1.404       .  A
C2351      C2355   1.520       .  S
C2352      H2356   1.084       .  S
C2353      F2366   1.385       .  S
C2353      F2367   1.382       .  S
C2353      F2368   1.382       .  S
C2355      F2363   1.385       .  S
C2355      F2364   1.382       .  S
C2355      F2365   1.384       .  S
C2369      C2370   1.402       .  A
C2369      C2374   1.408       .  A
C2369      H2379   1.083       .  S
C2370      C2375   1.483       .  S
C2370      C2371   1.415       .  A
C2371      C2372   1.406       .  A
C2371      C2376   1.520       .  S
C2372      C2373   1.405       .  A
C2372      H2377   1.083       .  S
C2373      C2374   1.419       .  A
C2374      C2378   1.517       .  S
C2375      C2380   1.414       .  A
C2375      C2384   1.402       .  A
C2376      F2392   1.382       .  S
C2376      F2393   1.382       .  S
C2376      F2394   1.384       .  S
C2378      F2389   1.382       .  S
C2378      F2390   1.385       .  S
C2378      F2391   1.382       .  S
C2380      C2381   1.403       .  A
C2380      C2385   1.521       .  S
C2381      C2382   1.406       .  A
C2381      H2386   1.083       .  S
C2382      C2383   1.423       .  A
C2383      C2384   1.410       .  A
C2383      C2387   1.520       .  S
C2384      H2388   1.084       .  S
C2385      F2398   1.385       .  S
C2385      F2399   1.382       .  S
C2385      F2400   1.382       .  S
C2387      F2395   1.385       .  S
C2387      F2396   1.383       .  S
C2387      F2397   1.383       .  S
C2401      C2402   1.402       .  A
C2401      C2406   1.409       .  A
C2401      H2411   1.084       .  S
C2402      C2407   1.480   1_554  S
C2402      C2403   1.415       .  A
C2403      C2404   1.401       .  A
C2403      C2408   1.522       .  S
C2404      C2405   1.401       .  A
C2404      H2409   1.083       .  S
C2405      C2406   1.420       .  A
C2406      C2410   1.519       .  S
C2407      C2412   1.410       .  A
C2407      C2416   1.398       .  A
C2408      F2424   1.382   1_554  S
C2408      F2425   1.382   1_554  S
C2408      F2426   1.385       .  S
C2410      F2421   1.385       .  S
C2410      F2422   1.382       .  S
C2410      F2423   1.384       .  S
C2412      C2413   1.404       .  A
C2412      C2417   1.519       .  S
C2413      C2414   1.410       .  A
C2413      H2418   1.080       .  S
C2414      C2415   1.430       .  A
C2415      C2416   1.407       .  A
C2415      C2419   1.522       .  S
C2416      H2420   1.083       .  S
C2417      F2430   1.385       .  S
C2417      F2431   1.383       .  S
C2417      F2432   1.382       .  S
C2419      F2427   1.385       .  S
C2419      F2428   1.384       .  S
C2419      F2429   1.383       .  S
C2433      C2434   1.401       .  A
C2433      C2438   1.407       .  A
C2433      H2443   1.083       .  S
C2434      C2439   1.480       .  S
C2434      C2435   1.414       .  A
C2435      C2436   1.403       .  A
C2435      C2440   1.520       .  S
C2436      C2437   1.405       .  A
C2436      H2441   1.083       .  S
C2437      C2438   1.420       .  A
C2438      C2442   1.519       .  S
C2439      C2444   1.415       .  A
C2439      C2448   1.401       .  A
C2440      F2456   1.382       .  S
C2440      F2457   1.383       .  S
C2440      F2458   1.385       .  S
C2442      F2453   1.383       .  S
C2442      F2454   1.385       .  S
C2442      F2455   1.384       .  S
C2444      C2445   1.403       .  A
C2444      C2449   1.521       .  S
C2445      C2446   1.404       .  A
C2445      H2450   1.083       .  S
C2446      C2447   1.418       .  A
C2447      C2448   1.406       .  A
C2447      C2451   1.519       .  S
C2448      H2452   1.083       .  S
C2449      F2462   1.385       .  S
C2449      F2463   1.382       .  S
C2449      F2464   1.383       .  S
C2451      F2459   1.385       .  S
C2451      F2460   1.383       .  S
C2451      F2461   1.382       .  S
C2465      C2466   1.398       .  A
C2465      C2470   1.405       .  A
C2465      H2475   1.083       .  S
C2466      C2471   1.484   1_565  S
C2466      C2467   1.413       .  A
C2467      C2468   1.409       .  A
C2467      C2472   1.518       .  S
C2468      C2469   1.408       .  A
C2468      H2473   1.083       .  S
C2469      C2470   1.425       .  A
C2470      C2474   1.522       .  S
C2471      C2476   1.413       .  A
C2471      C2480   1.401       .  A
C2472      F2488   1.383       .  S
C2472      F2489   1.382       .  S
C2472      F2490   1.385       .  S
C2474      F2485   1.385       .  S
C2474      F2486   1.383       .  S
C2474      F2487   1.383       .  S
C2476      C2477   1.403       .  A
C2476      C2481   1.522       .  S
C2477      C2478   1.410       .  A
C2477      H2482   1.082       .  S
C2478      C2479   1.428       .  A
C2479      C2480   1.412       .  A
C2479      C2483   1.521       .  S
C2480      H2484   1.083       .  S
C2481      F2494   1.384       .  S
C2481      F2495   1.382       .  S
C2481      F2496   1.382   1_545  S
C2483      F2491   1.385       .  S
C2483      F2492   1.383       .  S
C2483      F2493   1.384       .  S
C2497      C2498   1.403       .  A
C2497      C2502   1.412       .  A
C2497      H2507   1.083       .  S
C2498      C2503   1.487   1_556  S
C2498      C2499   1.415       .  A
C2499      C2500   1.404       .  A
C2499      C2504   1.521       .  S
C2500      C2501   1.406       .  A
C2500      H2505   1.083       .  S
C2501      C2502   1.423       .  A
C2502      C2506   1.520       .  S
C2503      C2508   1.413       .  A
C2503      C2512   1.396       .  A
C2504      F2520   1.382       .  S
C2504      F2521   1.382   1_556  S
C2504      F2522   1.384       .  S
C2506      F2517   1.385       .  S
C2506      F2518   1.383       .  S
C2506      F2519   1.384       .  S
C2508      C2509   1.411       .  A
C2508      C2513   1.517       .  S
C2509      C2510   1.410       .  A
C2509      H2514   1.083       .  S
C2510      C2511   1.432       .  A
C2511      C2512   1.406       .  A
C2511      C2515   1.524       .  S
C2512      H2516   1.084       .  S
C2513      F2526   1.384       .  S
C2513      F2527   1.383       .  S
C2513      F2528   1.382   1_554  S
C2515      F2523   1.385       .  S
C2515      F2524   1.383       .  S
C2515      F2525   1.383       .  S
C2529      C2530   1.401       .  A
C2529      C2534   1.406       .  A
C2529      H2539   1.084       .  S
C2530      C2535   1.483       .  S
C2530      C2531   1.414       .  A
C2531      C2532   1.407       .  A
C2531      C2536   1.520       .  S
C2532      C2533   1.407       .  A
C2532      H2537   1.083       .  S
C2533      C2534   1.421       .  A
C2534      C2538   1.519       .  S
C2535      C2540   1.417       .  A
C2535      C2544   1.402       .  A
C2536      F2552   1.382       .  S
C2536      F2553   1.382       .  S
C2536      F2554   1.385       .  S
C2538      F2549   1.385       .  S
C2538      F2550   1.381       .  S
C2538      F2551   1.384       .  S
C2540      C2541   1.407       .  A
C2540      C2545   1.520       .  S
C2541      C2542   1.403       .  A
C2541      H2546   1.084       .  S
C2542      C2543   1.415       .  A
C2543      C2544   1.405       .  A
C2543      C2547   1.518       .  S
C2544      H2548   1.084       .  S
C2545      F2558   1.385       .  S
C2545      F2559   1.382       .  S
C2545      F2560   1.382       .  S
C2547      F2555   1.382       .  S
C2547      F2556   1.383       .  S
C2547      F2557   1.385       .  S
C2561      C2562   1.399       .  A
C2561      C2566   1.407       .  A
C2561      H2571   1.083       .  S
C2562      C2567   1.488       .  S
C2562      C2563   1.415       .  A
C2563      C2564   1.408       .  A
C2563      C2568   1.521       .  S
C2564      C2565   1.410       .  A
C2564      H2569   1.082       .  S
C2565      C2566   1.428       .  A
C2566      C2570   1.522       .  S
C2567      C2572   1.415       .  A
C2567      C2576   1.400       .  A
C2568      F2584   1.382       .  S
C2568      F2585   1.382       .  S
C2568      F2586   1.385       .  S
C2570      F2581   1.385       .  S
C2570      F2582   1.383       .  S
C2570      F2583   1.384       .  S
C2572      C2573   1.409       .  A
C2572      C2577   1.520       .  S
C2573      C2574   1.409       .  A
C2573      H2578   1.083       .  S
C2574      C2575   1.424       .  A
C2575      C2576   1.407       .  A
C2575      C2579   1.518       .  S
C2576      H2580   1.083       .  S
C2577      F2590   1.384       .  S
C2577      F2591   1.382       .  S
C2577      F2592   1.383       .  S
C2579      F2587   1.385       .  S
C2579      F2588   1.383       .  S
C2579      F2589   1.383       .  S
C2593      C2594   1.404       .  A
C2593      C2598   1.410       .  A
C2593      H2603   1.083       .  S
C2594      C2599   1.485       .  S
C2594      C2595   1.417       .  A
C2595      C2596   1.404       .  A
C2595      C2600   1.521       .  S
C2596      C2597   1.402       .  A
C2596      H2601   1.083       .  S
C2597      C2598   1.415       .  A
C2598      C2602   1.517       .  S
C2599      C2604   1.412       .  A
C2599      C2608   1.401       .  A
C2600      F2616   1.382       .  S
C2600      F2617   1.383       .  S
C2600      F2618   1.385       .  S
C2602      F2613   1.383       .  S
C2602      F2614   1.384       .  S
C2602      F2615   1.383       .  S
C2604      C2605   1.405       .  A
C2604      C2609   1.520       .  S
C2605      C2606   1.411       .  A
C2605      H2610   1.082       .  S
C2606      C2607   1.424       .  A
C2607      C2608   1.410       .  A
C2607      C2611   1.519       .  S
C2608      H2612   1.084       .  S
C2609      F2622   1.385       .  S
C2609      F2623   1.382       .  S
C2609      F2624   1.382       .  S
C2611      F2619   1.385       .  S
C2611      F2620   1.383       .  S
C2611      F2621   1.383       .  S
C2625      C2626   1.399       .  A
C2625      C2630   1.405       .  A
C2625      H2635   1.083       .  S
C2626      C2631   1.478   1_565  S
C2626      C2627   1.413       .  A
C2627      C2628   1.402       .  A
C2627      C2632   1.521       .  S
C2628      C2629   1.408       .  A
C2628      H2633   1.082       .  S
C2629      C2630   1.426       .  A
C2630      C2634   1.521       .  S
C2631      C2636   1.413       .  A
C2631      C2640   1.400       .  A
C2632      F2648   1.382       .  S
C2632      F2649   1.382   1_565  S
C2632      F2650   1.384       .  S
C2634      F2645   1.385       .  S
C2634      F2646   1.382       .  S
C2634      F2647   1.384       .  S
C2636      C2637   1.405       .  A
C2636      C2641   1.520       .  S
C2637      C2638   1.407       .  A
C2637      H2642   1.083       .  S
C2638      C2639   1.420       .  A
C2639      C2640   1.402       .  A
C2639      C2643   1.520       .  S
C2640      H2644   1.083       .  S
C2641      F2654   1.385       .  S
C2641      F2655   1.381       .  S
C2641      F2656   1.382       .  S
C2643      F2651   1.385       .  S
C2643      F2652   1.381       .  S
C2643      F2653   1.383       .  S
C2657      C2658   1.398       .  A
C2657      C2662   1.406       .  A
C2657      H2667   1.084       .  S
C2658      C2663   1.477       .  S
C2658      C2659   1.411       .  A
C2659      C2660   1.402       .  A
C2659      C2664   1.521       .  S
C2660      C2661   1.410       .  A
C2660      H2665   1.083       .  S
C2661      C2662   1.427       .  A
C2662      C2666   1.521       .  S
C2663      C2668   1.413       .  A
C2663      C2672   1.398       .  A
C2664      F2680   1.382       .  S
C2664      F2681   1.382       .  S
C2664      F2682   1.385       .  S
C2666      F2677   1.383       .  S
C2666      F2678   1.385       .  S
C2666      F2679   1.382       .  S
C2668      C2669   1.406       .  A
C2668      C2673   1.520       .  S
C2669      C2670   1.406       .  A
C2669      H2674   1.081       .  S
C2670      C2671   1.422       .  A
C2671      C2672   1.404       .  A
C2671      C2675   1.519       .  S
C2672      H2676   1.083       .  S
C2673      F2686   1.384       .  S
C2673      F2687   1.382       .  S
C2673      F2688   1.383       .  S
C2675      F2683   1.385       .  S
C2675      F2684   1.383       .  S
C2675      F2685   1.383       .  S
C2689      C2690   1.396       .  A
C2689      C2694   1.404       .  A
C2689      H2699   1.084       .  S
C2690      C2695   1.476       .  S
C2690      C2691   1.411       .  A
C2691      C2692   1.406       .  A
C2691      C2696   1.519       .  S
C2692      C2693   1.408       .  A
C2692      H2697   1.083       .  S
C2693      C2694   1.425       .  A
C2694      C2698   1.519       .  S
C2695      C2700   1.415       .  A
C2695      C2704   1.400       .  A
C2696      F2712   1.382       .  S
C2696      F2713   1.381       .  S
C2696      F2714   1.384       .  S
C2698      F2709   1.377       .  S
C2698      F2710   1.385       .  S
C2698      F2711   1.382       .  S
C2700      C2701   1.404       .  A
C2700      C2705   1.522       .  S
C2701      C2702   1.403       .  A
C2701      H2706   1.080       .  S
C2702      C2703   1.418       .  A
C2703      C2704   1.405       .  A
C2703      C2707   1.519       .  S
C2704      H2708   1.083       .  S
C2705      F2718   1.385       .  S
C2705      F2719   1.383       .  S
C2705      F2720   1.381       .  S
C2707      F2715   1.385       .  S
C2707      F2716   1.382       .  S
C2707      F2717   1.383       .  S
C2721      C2722   1.400       .  A
C2721      C2726   1.410       .  A
C2721      H2731   1.083       .  S
C2722      C2727   1.486       .  S
C2722      C2723   1.413       .  A
C2723      C2724   1.407       .  A
C2723      C2728   1.521       .  S
C2724      C2725   1.410       .  A
C2724      H2729   1.082       .  S
C2725      C2726   1.426       .  A
C2726      C2730   1.520       .  S
C2727      C2732   1.416       .  A
C2727      C2736   1.404       .  A
C2728      F2744   1.382       .  S
C2728      F2745   1.383       .  S
C2728      F2746   1.384       .  S
C2730      F2741   1.383       .  S
C2730      F2742   1.385       .  S
C2730      F2743   1.384       .  S
C2732      C2733   1.406       .  A
C2732      C2737   1.520       .  S
C2733      C2734   1.404       .  A
C2733      H2738   1.084       .  S
C2734      C2735   1.415       .  A
C2735      C2736   1.409       .  A
C2735      C2739   1.517       .  S
C2736      H2740   1.083       .  S
C2737      F2750   1.385       .  S
C2737      F2751   1.382       .  S
C2737      F2752   1.382       .  S
C2739      F2747   1.384       .  S
C2739      F2748   1.383       .  S
C2739      F2749   1.382       .  S
C2753      C2754   1.402       .  A
C2753      C2758   1.411       .  A
C2753      H2763   1.084       .  S
C2754      C2759   1.487       .  S
C2754      C2755   1.415       .  A
C2755      C2756   1.407       .  A
C2755      C2760   1.522       .  S
C2756      C2757   1.407       .  A
C2756      H2761   1.083       .  S
C2757      C2758   1.423       .  A
C2758      C2762   1.519       .  S
C2759      C2764   1.416       .  A
C2759      C2768   1.400       .  A
C2760      F2776   1.382       .  S
C2760      F2777   1.381       .  S
C2760      F2778   1.385       .  S
C2762      F2773   1.385       .  S
C2762      F2774   1.383       .  S
C2762      F2775   1.383       .  S
C2764      C2765   1.411       .  A
C2764      C2769   1.518       .  S
C2765      C2766   1.405       .  A
C2765      H2770   1.082       .  S
C2766      C2767   1.420       .  A
C2767      C2768   1.406       .  A
C2767      C2771   1.519       .  S
C2768      H2772   1.083       .  S
C2769      F2782   1.385       .  S
C2769      F2783   1.382       .  S
C2769      F2784   1.381       .  S
C2771      F2779   1.382       .  S
C2771      F2780   1.380       .  S
C2771      F2781   1.385       .  S
C2785      C2786   1.400       .  A
C2785      C2790   1.406       .  A
C2785      H2795   1.083       .  S
C2786      C2791   1.487       .  S
C2786      C2787   1.414       .  A
C2787      C2788   1.410       .  A
C2787      C2792   1.518       .  S
C2788      C2789   1.408       .  A
C2788      H2793   1.083       .  S
C2789      C2790   1.424       .  A
C2790      C2794   1.521       .  S
C2791      C2796   1.415       .  A
C2791      C2800   1.400       .  A
C2792      F2808   1.382       .  S
C2792      F2809   1.382       .  S
C2792      F2810   1.385       .  S
C2794      F2805   1.385       .  S
C2794      F2806   1.383       .  S
C2794      F2807   1.382       .  S
C2796      C2797   1.406       .  A
C2796      C2801   1.521       .  S
C2797      C2798   1.410       .  A
C2797      H2802   1.082       .  S
C2798      C2799   1.426       .  A
C2799      C2800   1.410       .  A
C2799      C2803   1.519       .  S
C2800      H2804   1.083       .  S
C2801      F2814   1.385       .  S
C2801      F2815   1.382       .  S
C2801      F2816   1.382       .  S
C2803      F2811   1.385       .  S
C2803      F2812   1.382       .  S
C2803      F2813   1.383       .  S
C2817      C2818   1.400       .  A
C2817      C2822   1.408       .  A
C2817      H2827   1.083       .  S
C2818      C2823   1.488       .  S
C2818      C2819   1.415       .  A
C2819      C2820   1.407       .  A
C2819      C2824   1.520       .  S
C2820      C2821   1.407       .  A
C2820      H2825   1.081       .  S
C2821      C2822   1.426       .  A
C2822      C2826   1.522       .  S
C2823      C2828   1.416       .  A
C2823      C2832   1.402       .  A
C2824      F2840   1.381       .  S
C2824      F2841   1.382       .  S
C2824      F2842   1.385       .  S
C2826      F2837   1.385       .  S
C2826      F2838   1.381       .  S
C2826      F2839   1.383       .  S
C2828      C2829   1.407       .  A
C2828      C2833   1.520       .  S
C2829      C2830   1.405       .  A
C2829      H2834   1.084       .  S
C2830      C2831   1.421       .  A
C2831      C2832   1.408       .  A
C2831      C2835   1.519       .  S
C2832      H2836   1.084       .  S
C2833      F2846   1.384       .  S
C2833      F2847   1.382       .  S
C2833      F2848   1.383       .  S
C2835      F2843   1.383       .  S
C2835      F2844   1.383       .  S
C2835      F2845   1.385       .  S
C2849      C2850   1.399       .  A
C2849      C2854   1.406       .  A
C2849      H2859   1.083       .  S
C2850      C2855   1.480   1_556  S
C2850      C2851   1.414       .  A
C2851      C2852   1.405       .  A
C2851      C2856   1.520       .  S
C2852      C2853   1.407       .  A
C2852      H2857   1.083       .  S
C2853      C2854   1.424       .  A
C2854      C2858   1.519       .  S
C2855      C2860   1.416       .  A
C2855      C2864   1.399       .  A
C2856      F2872   1.382   1_556  S
C2856      F2873   1.382   1_556  S
C2856      F2874   1.384       .  S
C2858      F2869   1.385       .  S
C2858      F2870   1.382       .  S
C2858      F2871   1.381       .  S
C2860      C2861   1.409       .  A
C2860      C2865   1.519       .  S
C2861      C2862   1.403       .  A
C2861      H2866   1.082       .  S
C2862      C2863   1.416       .  A
C2863      C2864   1.401       .  A
C2863      C2867   1.518       .  S
C2864      H2868   1.083       .  S
C2865      F2878   1.385       .  S
C2865      F2879   1.382       .  S
C2865      F2880   1.382       .  S
C2867      F2875   1.382       .  S
C2867      F2876   1.382       .  S
C2867      F2877   1.385       .  S
C2881      C2882   1.397       .  A
C2881      C2886   1.406       .  A
C2881      H2891   1.083       .  S
C2882      C2887   1.483       .  S
C2882      C2883   1.413       .  A
C2883      C2884   1.407       .  A
C2883      C2888   1.521       .  S
C2884      C2885   1.412       .  A
C2884      H2889   1.082       .  S
C2885      C2886   1.430       .  A
C2886      C2890   1.523       .  S
C2887      C2892   1.416       .  A
C2887      C2896   1.403       .  A
C2888      F2904   1.382       .  S
C2888      F2905   1.383       .  S
C2888      F2906   1.385       .  S
C2890      F2901   1.384       .  S
C2890      F2902   1.385       .  S
C2890      F2903   1.382       .  S
C2892      C2893   1.405       .  A
C2892      C2897   1.520       .  S
C2893      C2894   1.401       .  A
C2893      H2898   1.084       .  S
C2894      C2895   1.415       .  A
C2895      C2896   1.407       .  A
C2895      C2899   1.517       .  S
C2896      H2900   1.083       .  S
C2897      F2910   1.383       .  S
C2897      F2911   1.382       .  S
C2897      F2912   1.382       .  S
C2899      F2907   1.383       .  S
C2899      F2908   1.382       .  S
C2899      F2909   1.385       .  S
C2913      C2914   1.403       .  A
C2913      C2918   1.407       .  A
C2913      H2923   1.083       .  S
C2914      C2919   1.482   1_655  S
C2914      C2915   1.417       .  A
C2915      C2916   1.404       .  A
C2915      C2920   1.520       .  S
C2916      C2917   1.400       .  A
C2916      H2921   1.083       .  S
C2917      C2918   1.413       .  A
C2918      C2922   1.515       .  S
C2919      C2924   1.412       .  A
C2919      C2928   1.398       .  A
C2920      F2936   1.382   1_655  S
C2920      F2937   1.383   1_655  S
C2920      F2938   1.385       .  S
C2922      F2933   1.382       .  S
C2922      F2934   1.384       .  S
C2922      F2935   1.383       .  S
C2924      C2925   1.405       .  A
C2924      C2929   1.521       .  S
C2925      C2926   1.411       .  A
C2925      H2930   1.082       .  S
C2926      C2927   1.430       .  A
C2927      C2928   1.408       .  A
C2927      C2931   1.522       .  S
C2928      H2932   1.083       .  S
C2929      F2942   1.385       .  S
C2929      F2943   1.382       .  S
C2929      F2944   1.383       .  S
C2931      F2939   1.383       .  S
C2931      F2940   1.384       .  S
C2931      F2941   1.385       .  S
C2945      C2946   1.401       .  A
C2945      C2950   1.404       .  A
C2945      H2955   1.083       .  S
C2946      C2951   1.478   1_556  S
C2946      C2947   1.415       .  A
C2947      C2948   1.404       .  A
C2947      C2952   1.520       .  S
C2948      C2949   1.403       .  A
C2948      H2953   1.083       .  S
C2949      C2950   1.417       .  A
C2950      C2954   1.519       .  S
C2951      C2956   1.417       .  A
C2951      C2960   1.402       .  A
C2952      F2968   1.382   1_556  S
C2952      F2969   1.382   1_556  S
C2952      F2970   1.385       .  S
C2954      F2965   1.382       .  S
C2954      F2966   1.385       .  S
C2954      F2967   1.383       .  S
C2956      C2957   1.404       .  A
C2956      C2961   1.520       .  S
C2957      C2958   1.400       .  A
C2957      H2962   1.083       .  S
C2958      C2959   1.413       .  A
C2959      C2960   1.404       .  A
C2959      C2963   1.517       .  S
C2960      H2964   1.083       .  S
C2961      F2974   1.385       .  S
C2961      F2975   1.381   1_554  S
C2961      F2976   1.382   1_554  S
C2963      F2971   1.385       .  S
C2963      F2972   1.383       .  S
C2963      F2973   1.383       .  S
C2977      C2978   1.398       .  A
C2977      C2982   1.408       .  A
C2977      H2987   1.082       .  S
C2978      C2983   1.486       .  S
C2978      C2979   1.413       .  A
C2979      C2980   1.407       .  A
C2979      C2984   1.520       .  S
C2980      C2981   1.410       .  A
C2980      H2985   1.077       .  S
C2981      C2982   1.430       .  A
C2982      C2986   1.523       .  S
C2983      C2988   1.415       .  A
C2983      C2992   1.401       .  A
C2984      F3000   1.382       .  S
C2984      F3001   1.382       .  S
C2984      F3002   1.385       .  S
C2986      F2997   1.384       .  S
C2986      F2998   1.385       .  S
C2986      F2999   1.383       .  S
C2988      C2989   1.406       .  A
C2988      C2993   1.520       .  S
C2989      C2990   1.405       .  A
C2989      H2994   1.083       .  S
C2990      C2991   1.422       .  A
C2991      C2992   1.408       .  A
C2991      C2995   1.520       .  S
C2992      H2996   1.084       .  S
C2993      F3006   1.385       .  S
C2993      F3007   1.382       .  S
C2993      F3008   1.382       .  S
C2995      F3003   1.385       .  S
C2995      F3004   1.380       .  S
C2995      F3005   1.383       .  S
C3009      C3010   1.401       .  A
C3009      C3014   1.404       .  A
C3009      H3019   1.083       .  S
C3010      C3015   1.483       .  S
C3010      C3011   1.417       .  A
C3011      C3012   1.408       .  A
C3011      C3016   1.520       .  S
C3012      C3013   1.403       .  A
C3012      H3017   1.083       .  S
C3013      C3014   1.419       .  A
C3014      C3018   1.519       .  S
C3015      C3020   1.413       .  A
C3015      C3024   1.398       .  A
C3016      F3032   1.382       .  S
C3016      F3033   1.383       .  S
C3016      F3034   1.384       .  S
C3018      F3029   1.382       .  S
C3018      F3030   1.385       .  S
C3018      F3031   1.381       .  S
C3020      C3021   1.406       .  A
C3020      C3025   1.520       .  S
C3021      C3022   1.410       .  A
C3021      H3026   1.083       .  S
C3022      C3023   1.427       .  A
C3023      C3024   1.406       .  A
C3023      C3027   1.521       .  S
C3024      H3028   1.084       .  S
C3025      F3038   1.385       .  S
C3025      F3039   1.382       .  S
C3025      F3040   1.382       .  S
C3027      F3035   1.385       .  S
C3027      F3036   1.380       .  S
C3027      F3037   1.383       .  S
C3041      C3042   1.401       .  A
C3041      C3046   1.407       .  A
C3041      H3051   1.083       .  S
C3042      C3047   1.487       .  S
C3042      C3043   1.416       .  A
C3043      C3044   1.408       .  A
C3043      C3048   1.518       .  S
C3044      C3045   1.404       .  A
C3044      H3049   1.083       .  S
C3045      C3046   1.420       .  A
C3046      C3050   1.520       .  S
C3047      C3052   1.416       .  A
C3047      C3056   1.402       .  A
C3048      F3064   1.382       .  S
C3048      F3065   1.382       .  S
C3048      F3066   1.385       .  S
C3050      F3061   1.385       .  S
C3050      F3062   1.382       .  S
C3050      F3063   1.383       .  S
C3052      C3053   1.406       .  A
C3052      C3057   1.521       .  S
C3053      C3054   1.405       .  A
C3053      H3058   1.082       .  S
C3054      C3055   1.422       .  A
C3055      C3056   1.411       .  A
C3055      C3059   1.519       .  S
C3056      H3060   1.083       .  S
C3057      F3070   1.384       .  S
C3057      F3071   1.382       .  S
C3057      F3072   1.382       .  S
C3059      F3067   1.382       .  S
C3059      F3068   1.383       .  S
C3059      F3069   1.385       .  S
C3073      C3074   1.399       .  A
C3073      C3078   1.405       .  A
C3073      H3083   1.083       .  S
C3074      C3079   1.486   1_655  S
C3074      C3075   1.416       .  A
C3075      C3076   1.410       .  A
C3075      C3080   1.519       .  S
C3076      C3077   1.407       .  A
C3076      H3081   1.083       .  S
C3077      C3078   1.421       .  A
C3078      C3082   1.517       .  S
C3079      C3084   1.415       .  A
C3079      C3088   1.400       .  A
C3080      F3096   1.382       .  S
C3080      F3097   1.382       .  S
C3080      F3098   1.384       .  S
C3082      F3093   1.381       .  S
C3082      F3094   1.385       .  S
C3082      F3095   1.383       .  S
C3084      C3085   1.407       .  A
C3084      C3089   1.520       .  S
C3085      C3086   1.408       .  A
C3085      H3090   1.083       .  S
C3086      C3087   1.425       .  A
C3087      C3088   1.407       .  A
C3087      C3091   1.520       .  S
C3088      H3092   1.083       .  S
C3089      F3102   1.385       .  S
C3089      F3103   1.382       .  S
C3089      F3104   1.383       .  S
C3091      F3099   1.382       .  S
C3091      F3100   1.382       .  S
C3091      F3101   1.385       .  S
C3105      C3106   1.402       .  A
C3105      C3110   1.408       .  A
C3105      H3115   1.083       .  S
C3106      C3111   1.491       .  S
C3106      C3107   1.418       .  A
C3107      C3108   1.410       .  A
C3107      C3112   1.519       .  S
C3108      C3109   1.402       .  A
C3108      H3113   1.083       .  S
C3109      C3110   1.418       .  A
C3110      C3114   1.518       .  S
C3111      C3116   1.414       .  A
C3111      C3120   1.398       .  A
C3112      F3128   1.381       .  S
C3112      F3129   1.383       .  S
C3112      F3130   1.384       .  S
C3114      F3125   1.382       .  S
C3114      F3126   1.385       .  S
C3114      F3127   1.380       .  S
C3116      C3117   1.410       .  A
C3116      C3121   1.520       .  S
C3117      C3118   1.412       .  A
C3117      H3122   1.082       .  S
C3118      C3119   1.431       .  A
C3119      C3120   1.409       .  A
C3119      C3123   1.524       .  S
C3120      H3124   1.082       .  S
C3121      F3134   1.384       .  S
C3121      F3135   1.382       .  S
C3121      F3136   1.383       .  S
C3123      F3131   1.385       .  S
C3123      F3132   1.382       .  S
C3123      F3133   1.383       .  S
C3137      C3138   1.401       .  A
C3137      C3142   1.408       .  A
C3137      H3147   1.083       .  S
C3138      C3143   1.479       .  S
C3138      C3139   1.414       .  A
C3139      C3140   1.402       .  A
C3139      C3144   1.521       .  S
C3140      C3141   1.406       .  A
C3140      H3145   1.083       .  S
C3141      C3142   1.422       .  A
C3142      C3146   1.521       .  S
C3143      C3148   1.411       .  A
C3143      C3152   1.396       .  A
C3144      F3160   1.382       .  S
C3144      F3161   1.382       .  S
C3144      F3162   1.384       .  S
C3146      F3157   1.382       .  S
C3146      F3158   1.385       .  S
C3146      F3159   1.384       .  S
C3148      C3149   1.406       .  A
C3148      C3153   1.520       .  S
C3149      C3150   1.411       .  A
C3149      H3154   1.082       .  S
C3150      C3151   1.430       .  A
C3151      C3152   1.405       .  A
C3151      C3155   1.523       .  S
C3152      H3156   1.083       .  S
C3153      F3166   1.384       .  S
C3153      F3167   1.382       .  S
C3153      F3168   1.382       .  S
C3155      F3163   1.385       .  S
C3155      F3164   1.383       .  S
C3155      F3165   1.383       .  S
C3169      C3170   1.398       .  A
C3169      C3174   1.401       .  A
C3169      H3179   1.084       .  S
C3170      C3175   1.473       .  S
C3170      C3171   1.416       .  A
C3171      C3172   1.404       .  A
C3171      C3176   1.520       .  S
C3172      C3173   1.406       .  A
C3172      H3177   1.086       .  S
C3173      C3174   1.421       .  A
C3174      C3178   1.520       .  S
C3175      C3180   1.413       .  A
C3175      C3184   1.400       .  A
C3176      F3192   1.383       .  S
C3176      F3193   1.382       .  S
C3176      F3194   1.384       .  S
C3178      F3189   1.380       .  S
C3178      F3190   1.385       .  S
C3178      F3191   1.382       .  S
C3180      C3181   1.404       .  A
C3180      C3185   1.518       .  S
C3181      C3182   1.403       .  A
C3181      H3186   1.083       .  S
C3182      C3183   1.418       .  A
C3183      C3184   1.403       .  A
C3183      C3187   1.520       .  S
C3184      H3188   1.083       .  S
C3185      F3198   1.384       .  S
C3185      F3199   1.383       .  S
C3185      F3200   1.383       .  S
C3187      F3195   1.382       .  S
C3187      F3196   1.381       .  S
C3187      F3197   1.385       .  S
C3201      C3202   1.403       .  A
C3201      C3206   1.409       .  A
C3201      H3211   1.083       .  S
C3202      C3207   1.487       .  S
C3202      C3203   1.417       .  A
C3203      C3204   1.407       .  A
C3203      C3208   1.520       .  S
C3204      C3205   1.403       .  A
C3204      H3209   1.084       .  S
C3205      C3206   1.417       .  A
C3206      C3210   1.518       .  S
C3207      C3212   1.414       .  A
C3207      C3216   1.401       .  A
C3208      F3224   1.382       .  S
C3208      F3225   1.383       .  S
C3208      F3226   1.384       .  S
C3210      F3221   1.385       .  S
C3210      F3222   1.383       .  S
C3210      F3223   1.382       .  S
C3212      C3213   1.405       .  A
C3212      C3217   1.521       .  S
C3213      C3214   1.409       .  A
C3213      H3218   1.082       .  S
C3214      C3215   1.427       .  A
C3215      C3216   1.410       .  A
C3215      C3219   1.521       .  S
C3216      H3220   1.083       .  S
C3217      F3230   1.385       .  S
C3217      F3231   1.382       .  S
C3217      F3232   1.382       .  S
C3219      F3227   1.385       .  S
C3219      F3228   1.384       .  S
C3219      F3229   1.384       .  S
C3233      C3234   1.399       .  A
C3233      C3238   1.407       .  A
C3233      H3243   1.083       .  S
C3234      C3239   1.489       .  S
C3234      C3235   1.416       .  A
C3235      C3236   1.411       .  A
C3235      C3240   1.519       .  S
C3236      C3237   1.407       .  A
C3236      H3241   1.082       .  S
C3237      C3238   1.424       .  A
C3238      C3242   1.521       .  S
C3239      C3244   1.414       .  A
C3239      C3248   1.399       .  A
C3240      F3256   1.382       .  S
C3240      F3257   1.382       .  S
C3240      F3258   1.384       .  S
C3242      F3253   1.381       .  S
C3242      F3254   1.385       .  S
C3242      F3255   1.382       .  S
C3244      C3245   1.409       .  A
C3244      C3249   1.521       .  S
C3245      C3246   1.413       .  A
C3245      H3250   1.082       .  S
C3246      C3247   1.428       .  A
C3247      C3248   1.409       .  A
C3247      C3251   1.520       .  S
C3248      H3252   1.083       .  S
C3249      F3262   1.385       .  S
C3249      F3263   1.382       .  S
C3249      F3264   1.382       .  S
C3251      F3259   1.385       .  S
C3251      F3260   1.383       .  S
C3251      F3261   1.382       .  S
C3265      C3266   1.403       .  A
C3265      C3270   1.406       .  A
C3265      H3275   1.083       .  S
C3266      C3271   1.481       .  S
C3266      C3267   1.416       .  A
C3267      C3268   1.405       .  A
C3267      C3272   1.520       .  S
C3268      C3269   1.403       .  A
C3268      H3273   1.083       .  S
C3269      C3270   1.414       .  A
C3270      C3274   1.517       .  S
C3271      C3276   1.416       .  A
C3271      C3280   1.402       .  A
C3272      F3288   1.382       .  S
C3272      F3289   1.383       .  S
C3272      F3290   1.384       .  S
C3274      F3285   1.382       .  S
C3274      F3286   1.384       .  S
C3274      F3287   1.383       .  S
C3276      C3277   1.404       .  A
C3276      C3281   1.520       .  S
C3277      C3278   1.402       .  A
C3277      H3282   1.084       .  S
C3278      C3279   1.416       .  A
C3279      C3280   1.407       .  A
C3279      C3283   1.517       .  S
C3280      H3284   1.084       .  S
C3281      F3294   1.385       .  S
C3281      F3295   1.382       .  S
C3281      F3296   1.382       .  S
C3283      F3291   1.385       .  S
C3283      F3292   1.383       .  S
C3283      F3293   1.382       .  S
C3297      C3298   1.399       .  A
C3297      C3302   1.407       .  A
C3297      H3307   1.083       .  S
C3298      C3303   1.479       .  S
C3298      C3299   1.414       .  A
C3299      C3300   1.404       .  A
C3299      C3304   1.522       .  S
C3300      C3301   1.408       .  A
C3300      H3305   1.082       .  S
C3301      C3302   1.425       .  A
C3302      C3306   1.520       .  S
C3303      C3308   1.410       .  A
C3303      C3312   1.397       .  A
C3304      F3320   1.382       .  S
C3304      F3321   1.381       .  S
C3304      F3322   1.385       .  S
C3306      F3317   1.385       .  S
C3306      F3318   1.382       .  S
C3306      F3319   1.381       .  S
C3308      C3309   1.407       .  A
C3308      C3313   1.519       .  S
C3309      C3310   1.410       .  A
C3309      H3314   1.082       .  S
C3310      C3311   1.428       .  A
C3311      C3312   1.404       .  A
C3311      C3315   1.523       .  S
C3312      H3316   1.084       .  S
C3313      F3326   1.384       .  S
C3313      F3327   1.382       .  S
C3313      F3328   1.381       .  S
C3315      F3323   1.384       .  S
C3315      F3324   1.383       .  S
C3315      F3325   1.385       .  S
C3329      C3330   1.402       .  A
C3329      C3334   1.408       .  A
C3329      H3339   1.083       .  S
C3330      C3335   1.481   1_655  S
C3330      C3331   1.415       .  A
C3331      C3332   1.405       .  A
C3331      C3336   1.521       .  S
C3332      C3333   1.403       .  A
C3332      H3337   1.081       .  S
C3333      C3334   1.417       .  A
C3334      C3338   1.516       .  S
C3335      C3340   1.412       .  A
C3335      C3344   1.397       .  A
C3336      F3352   1.383   1_655  S
C3336      F3353   1.381   1_655  S
C3336      F3354   1.384       .  S
C3338      F3349   1.384       .  S
C3338      F3350   1.383       .  S
C3338      F3351   1.383       .  S
C3340      C3341   1.407       .  A
C3340      C3345   1.520       .  S
C3341      C3342   1.411       .  A
C3341      H3346   1.083       .  S
C3342      C3343   1.427       .  A
C3343      C3344   1.406       .  A
C3343      C3347   1.521       .  S
C3344      H3348   1.084       .  S
C3345      F3358   1.385       .  S
C3345      F3359   1.383       .  S
C3345      F3360   1.381       .  S
C3347      F3355   1.385       .  S
C3347      F3356   1.383       .  S
C3347      F3357   1.382       .  S
C3361      C3362   1.400       .  A
C3361      C3366   1.409       .  A
C3361      H3371   1.083       .  S
C3362      C3367   1.484   1_556  S
C3362      C3363   1.414       .  A
C3363      C3364   1.406       .  A
C3363      C3368   1.521       .  S
C3364      C3365   1.408       .  A
C3364      H3369   1.082       .  S
C3365      C3366   1.424       .  A
C3366      C3370   1.520       .  S
C3367      C3372   1.417       .  A
C3367      C3376   1.400       .  A
C3368      F3384   1.382       .  S
C3368      F3385   1.382       .  S
C3368      F3386   1.385       .  S
C3370      F3381   1.385       .  S
C3370      F3382   1.384       .  S
C3370      F3383   1.383       .  S
C3372      C3373   1.410       .  A
C3372      C3377   1.517       .  S
C3373      C3374   1.402       .  A
C3373      H3378   1.084       .  S
C3374      C3375   1.416       .  A
C3375      C3376   1.403       .  A
C3375      C3379   1.517       .  S
C3376      H3380   1.084       .  S
C3377      F3390   1.385       .  S
C3377      F3391   1.382   1_554  S
C3377      F3392   1.382   1_554  S
C3379      F3387   1.382       .  S
C3379      F3388   1.382       .  S
C3379      F3389   1.385       .  S
C3393      C3394   1.402       .  A
C3393      C3398   1.408       .  A
C3393      H3403   1.083       .  S
C3394      C3399   1.485       .  S
C3394      C3395   1.416       .  A
C3395      C3396   1.407       .  A
C3395      C3400   1.521       .  S
C3396      C3397   1.406       .  A
C3396      H3401   1.084       .  S
C3397      C3398   1.419       .  A
C3398      C3402   1.519       .  S
C3399      C3404   1.412       .  A
C3399      C3408   1.398       .  A
C3400      F3416   1.382       .  S
C3400      F3417   1.382       .  S
C3400      F3418   1.385       .  S
C3402      F3413   1.385       .  S
C3402      F3414   1.382       .  S
C3402      F3415   1.383       .  S
C3404      C3405   1.407       .  A
C3404      C3409   1.520       .  S
C3405      C3406   1.412       .  A
C3405      H3410   1.082       .  S
C3406      C3407   1.429       .  A
C3407      C3408   1.408       .  A
C3407      C3411   1.522       .  S
C3408      H3412   1.083       .  S
C3409      F3422   1.385       .  S
C3409      F3423   1.382       .  S
C3409      F3424   1.382       .  S
C3411      F3419   1.385       .  S
C3411      F3420   1.383       .  S
C3411      F3421   1.383       .  S
C3425      C3426   1.402       .  A
C3425      C3430   1.411       .  A
C3425      H3435   1.083       .  S
C3426      C3431   1.486       .  S
C3426      C3427   1.414       .  A
C3427      C3428   1.405       .  A
C3427      C3432   1.521       .  S
C3428      C3429   1.406       .  A
C3428      H3433   1.083       .  S
C3429      C3430   1.423       .  A
C3430      C3434   1.519       .  S
C3431      C3436   1.412       .  A
C3431      C3440   1.397       .  A
C3432      F3448   1.383       .  S
C3432      F3449   1.382       .  S
C3432      F3450   1.384       .  S
C3434      F3445   1.381       .  S
C3434      F3446   1.385       .  S
C3434      F3447   1.383       .  S
C3436      C3437   1.408       .  A
C3436      C3441   1.519       .  S
C3437      C3438   1.411       .  A
C3437      H3442   1.082       .  S
C3438      C3439   1.431       .  A
C3439      C3440   1.408       .  A
C3439      C3443   1.523       .  S
C3440      H3444   1.083       .  S
C3441      F3454   1.385       .  S
C3441      F3455   1.382       .  S
C3441      F3456   1.382       .  S
C3443      F3451   1.383       .  S
C3443      F3452   1.384       .  S
C3443      F3453   1.385       .  S
C3457      C3458   1.400       .  A
C3457      C3462   1.406       .  A
C3457      H3467   1.084       .  S
C3458      C3463   1.482   1_565  S
C3458      C3459   1.414       .  A
C3459      C3460   1.407       .  A
C3459      C3464   1.520       .  S
C3460      C3461   1.407       .  A
C3460      H3465   1.084       .  S
C3461      C3462   1.422       .  A
C3462      C3466   1.520       .  S
C3463      C3468   1.417       .  A
C3463      C3472   1.403       .  A
C3464      F3480   1.382       .  S
C3464      F3481   1.382       .  S
C3464      F3482   1.384       .  S
C3466      F3477   1.385       .  S
C3466      F3478   1.382       .  S
C3466      F3479   1.383       .  S
C3468      C3469   1.404       .  A
C3468      C3473   1.520       .  S
C3469      C3470   1.402       .  A
C3469      H3474   1.083       .  S
C3470      C3471   1.413       .  A
C3471      C3472   1.406       .  A
C3471      C3475   1.516       .  S
C3472      H3476   1.083       .  S
C3473      F3486   1.385       .  S
C3473      F3487   1.382       .  S
C3473      F3488   1.382   1_545  S
C3475      F3483   1.382       .  S
C3475      F3484   1.383       .  S
C3475      F3485   1.385       .  S
C3489      C3490   1.399       .  A
C3489      C3494   1.407       .  A
C3489      H3499   1.083       .  S
C3490      C3495   1.475   1_556  S
C3490      C3491   1.412       .  A
C3491      C3492   1.402       .  A
C3491      C3496   1.522       .  S
C3492      C3493   1.407       .  A
C3492      H3497   1.083       .  S
C3493      C3494   1.423       .  A
C3494      C3498   1.518       .  S
C3495      C3500   1.414       .  A
C3495      C3504   1.399       .  A
C3496      F3512   1.382       .  S
C3496      F3513   1.382       .  S
C3496      F3514   1.384       .  S
C3498      F3509   1.385       .  S
C3498      F3510   1.383       .  S
C3498      F3511   1.381       .  S
C3500      C3501   1.406       .  A
C3500      C3505   1.519       .  S
C3501      C3502   1.403       .  A
C3501      H3506   1.084       .  S
C3502      C3503   1.417       .  A
C3503      C3504   1.401       .  A
C3503      C3507   1.519       .  S
C3504      H3508   1.084       .  S
C3505      F3518   1.385       .  S
C3505      F3519   1.382   1_554  S
C3505      F3520   1.382   1_554  S
C3507      F3515   1.382       .  S
C3507      F3516   1.381       .  S
C3507      F3517   1.384       .  S
C3521      C3522   1.398       .  A
C3521      C3526   1.407       .  A
C3521      H3531   1.083       .  S
C3522      C3527   1.483       .  S
C3522      C3523   1.412       .  A
C3523      C3524   1.407       .  A
C3523      C3528   1.520       .  S
C3524      C3525   1.410       .  A
C3524      H3529   1.083       .  S
C3525      C3526   1.430       .  A
C3526      C3530   1.523       .  S
C3527      C3532   1.414       .  A
C3527      C3536   1.401       .  A
C3528      F3544   1.382       .  S
C3528      F3545   1.382       .  S
C3528      F3546   1.384       .  S
C3530      F3541   1.382       .  S
C3530      F3542   1.385       .  S
C3530      F3543   1.383       .  S
C3532      C3533   1.405       .  A
C3532      C3537   1.521       .  S
C3533      C3534   1.408       .  A
C3533      H3538   1.083       .  S
C3534      C3535   1.422       .  A
C3535      C3536   1.408       .  A
C3535      C3539   1.520       .  S
C3536      H3540   1.083       .  S
C3537      F3550   1.385       .  S
C3537      F3551   1.382       .  S
C3537      F3552   1.382       .  S
C3539      F3547   1.385       .  S
C3539      F3548   1.383       .  S
C3539      F3549   1.384       .  S
C3553      C3554   1.396       .  A
C3553      C3558   1.405       .  A
C3553      H3563   1.083       .  S
C3554      C3559   1.482       .  S
C3554      C3555   1.412       .  A
C3555      C3556   1.408       .  A
C3555      C3560   1.519       .  S
C3556      C3557   1.410       .  A
C3556      H3561   1.082       .  S
C3557      C3558   1.430       .  A
C3558      C3562   1.524       .  S
C3559      C3564   1.414       .  A
C3559      C3568   1.400       .  A
C3560      F3576   1.382       .  S
C3560      F3577   1.382       .  S
C3560      F3578   1.384       .  S
C3562      F3573   1.382       .  S
C3562      F3574   1.385       .  S
C3562      F3575   1.383       .  S
C3564      C3565   1.404       .  A
C3564      C3569   1.521       .  S
C3565      C3566   1.408       .  A
C3565      H3570   1.083       .  S
C3566      C3567   1.426       .  A
C3567      C3568   1.408       .  A
C3567      C3571   1.521       .  S
C3568      H3572   1.083       .  S
C3569      F3582   1.385       .  S
C3569      F3583   1.382       .  S
C3569      F3584   1.382       .  S
C3571      F3579   1.383       .  S
C3571      F3580   1.384       .  S
C3571      F3581   1.385       .  S
C3585      C3586   1.401       .  A
C3585      C3590   1.407       .  A
C3585      H3595   1.083       .  S
C3586      C3591   1.484       .  S
C3586      C3587   1.414       .  A
C3587      C3588   1.408       .  A
C3587      C3592   1.520       .  S
C3588      C3589   1.408       .  A
C3588      H3593   1.083       .  S
C3589      C3590   1.419       .  A
C3590      C3594   1.516       .  S
C3591      C3596   1.415       .  A
C3591      C3600   1.403       .  A
C3592      F3608   1.382       .  S
C3592      F3609   1.382       .  S
C3592      F3610   1.385       .  S
C3594      F3605   1.382       .  S
C3594      F3606   1.385       .  S
C3594      F3607   1.383       .  S
C3596      C3597   1.406       .  A
C3596      C3601   1.521       .  S
C3597      C3598   1.405       .  A
C3597      H3602   1.083       .  S
C3598      C3599   1.419       .  A
C3599      C3600   1.409       .  A
C3599      C3603   1.518       .  S
C3600      H3604   1.083       .  S
C3601      F3614   1.385       .  S
C3601      F3615   1.382       .  S
C3601      F3616   1.382       .  S
C3603      F3611   1.385       .  S
C3603      F3612   1.383       .  S
C3603      F3613   1.382       .  S
C3617      C3618   1.399       .  A
C3617      C3622   1.403       .  A
C3617      H3627   1.084       .  S
C3618      C3623   1.478   1_655  S
C3618      C3619   1.415       .  A
C3619      C3620   1.406       .  A
C3619      C3624   1.519       .  S
C3620      C3621   1.404       .  A
C3620      H3625   1.083       .  S
C3621      C3622   1.421       .  A
C3622      C3626   1.521       .  S
C3623      C3628   1.414       .  A
C3623      C3632   1.399       .  A
C3624      F3640   1.382       .  S
C3624      F3641   1.381       .  S
C3624      F3642   1.385       .  S
C3626      F3637   1.385       .  S
C3626      F3638   1.383       .  S
C3626      F3639   1.383       .  S
C3628      C3629   1.407       .  A
C3628      C3633   1.520       .  S
C3629      C3630   1.406       .  A
C3629      H3634   1.083       .  S
C3630      C3631   1.421       .  A
C3631      C3632   1.403       .  A
C3631      C3635   1.521       .  S
C3632      H3636   1.083       .  S
C3633      F3646   1.385       .  S
C3633      F3647   1.382       .  S
C3633      F3648   1.381       .  S
C3635      F3643   1.383       .  S
C3635      F3644   1.382       .  S
C3635      F3645   1.385       .  S
C3649      C3650   1.401       .  A
C3649      C3654   1.406       .  A
C3649      H3659   1.083       .  S
C3650      C3655   1.484   1_565  S
C3650      C3651   1.416       .  A
C3651      C3652   1.407       .  A
C3651      C3656   1.520       .  S
C3652      C3653   1.405       .  A
C3652      H3657   1.083       .  S
C3653      C3654   1.420       .  A
C3654      C3658   1.518       .  S
C3655      C3660   1.415       .  A
C3655      C3664   1.398       .  A
C3656      F3672   1.382       .  S
C3656      F3673   1.382       .  S
C3656      F3674   1.385       .  S
C3658      F3669   1.384       .  S
C3658      F3670   1.380       .  S
C3658      F3671   1.381       .  S
C3660      C3661   1.408       .  A
C3660      C3665   1.519       .  S
C3661      C3662   1.407       .  A
C3661      H3666   1.083       .  S
C3662      C3663   1.426       .  A
C3663      C3664   1.405       .  A
C3663      C3667   1.522       .  S
C3664      H3668   1.083       .  S
C3665      F3678   1.385       .  S
C3665      F3679   1.382       .  S
C3665      F3680   1.382       .  S
C3667      F3675   1.383       .  S
C3667      F3676   1.383       .  S
C3667      F3677   1.385       .  S
C3681      C3682   1.401       .  A
C3681      C3686   1.407       .  A
C3681      H3691   1.084       .  S
C3682      C3687   1.478       .  S
C3682      C3683   1.413       .  A
C3683      C3684   1.401       .  A
C3683      C3688   1.522       .  S
C3684      C3685   1.408       .  A
C3684      H3689   1.084       .  S
C3685      C3686   1.421       .  A
C3686      C3690   1.520       .  S
C3687      C3692   1.412       .  A
C3687      C3696   1.397       .  A
C3688      F3704   1.382       .  S
C3688      F3705   1.382       .  S
C3688      F3706   1.385       .  S
C3690      F3701   1.384       .  S
C3690      F3702   1.385       .  S
C3690      F3703   1.383       .  S
C3692      C3693   1.406       .  A
C3692      C3697   1.520       .  S
C3693      C3694   1.409       .  A
C3693      H3698   1.083       .  S
C3694      C3695   1.427       .  A
C3695      C3696   1.404       .  A
C3695      C3699   1.522       .  S
C3696      H3700   1.084       .  S
C3697      F3710   1.385       .  S
C3697      F3711   1.382       .  S
C3697      F3712   1.382       .  S
C3699      F3707   1.385       .  S
C3699      F3708   1.383       .  S
C3699      F3709   1.383       .  S
C3713      C3714   1.398       .  A
C3713      C3718   1.406       .  A
C3713      H3723   1.083       .  S
C3714      C3719   1.481       .  S
C3714      C3715   1.414       .  A
C3715      C3716   1.405       .  A
C3715      C3720   1.520       .  S
C3716      C3717   1.407       .  A
C3716      H3721   1.083       .  S
C3717      C3718   1.427       .  A
C3718      C3722   1.521       .  S
C3719      C3724   1.413       .  A
C3719      C3728   1.398       .  A
C3720      F3736   1.382       .  S
C3720      F3737   1.383       .  S
C3720      F3738   1.384       .  S
C3722      F3733   1.385       .  S
C3722      F3734   1.383       .  S
C3722      F3735   1.383       .  S
C3724      C3725   1.406       .  A
C3724      C3729   1.520       .  S
C3725      C3726   1.410       .  A
C3725      H3730   1.083       .  S
C3726      C3727   1.426       .  A
C3727      C3728   1.404       .  A
C3727      C3731   1.521       .  S
C3728      H3732   1.083       .  S
C3729      F3742   1.385       .  S
C3729      F3743   1.382       .  S
C3729      F3744   1.383       .  S
C3731      F3739   1.385       .  S
C3731      F3740   1.383       .  S
C3731      F3741   1.382       .  S
C3745      C3746   1.400       .  A
C3745      C3750   1.405       .  A
C3745      H3755   1.083       .  S
C3746      C3751   1.479       .  S
C3746      C3747   1.413       .  A
C3747      C3748   1.405       .  A
C3747      C3752   1.521       .  S
C3748      C3749   1.409       .  A
C3748      H3753   1.083       .  S
C3749      C3750   1.419       .  A
C3750      C3754   1.515       .  S
C3751      C3756   1.411       .  A
C3751      C3760   1.396       .  A
C3752      F3768   1.382       .  S
C3752      F3769   1.381       .  S
C3752      F3770   1.385       .  S
C3754      F3765   1.385       .  S
C3754      F3766   1.382       .  S
C3754      F3767   1.383       .  S
C3756      C3757   1.406       .  A
C3756      C3761   1.520       .  S
C3757      C3758   1.411       .  A
C3757      H3762   1.082       .  S
C3758      C3759   1.431       .  A
C3759      C3760   1.406       .  A
C3759      C3763   1.523       .  S
C3760      H3764   1.083       .  S
C3761      F3774   1.385       .  S
C3761      F3775   1.382       .  S
C3761      F3776   1.381       .  S
C3763      F3771   1.385       .  S
C3763      F3772   1.383       .  S
C3763      F3773   1.383       .  S
