geometry optimzed in LAMMPS
_audit_creation_date              2020-11-30 
_audit_creation_method            'lammps2cif' 
_symmetry_space_group_name_H-M    'P1' 
_symmetry_Int_Tables_number       1 
_symmetry_cell_setting            triclinic 
loop_ 
_symmetry_equiv_pos_as_xyz 
  x,y,z 
_cell_length_a                    65.13256802 
_cell_length_b                    65.1776758981946 
_cell_length_c                    64.86133064623225 
_cell_angle_alpha                 89.99667151724113 
_cell_angle_beta                  89.82894520371981 
_cell_angle_gamma                 90.05753207817689 
loop_ 
_atom_site_label 
_atom_site_type_symbol 
_atom_site_fract_x 
_atom_site_fract_y 
_atom_site_fract_z 
_atom_site_charge 
In1        In  0.37011462  0.85697213  0.55162773     1.36900
C2          C  0.34973406  0.83456821  0.57885937     0.77300
O3          O  0.38230800  0.87544053  0.57802269    -0.61200
O4          O  0.36217078  0.89028378  0.55701878    -0.52100
C5          C  0.40491732  0.85685051  0.52985286     0.70000
O6          O  0.40238674  0.84514190  0.54528522    -0.46900
C7          C  0.34619844  0.84091501  0.52322123     0.74700
O8          O  0.36874614  0.83164749  0.57554393    -0.58800
O9          O  0.34539923  0.85988725  0.52754578    -0.48900
O10         O  0.34192870  0.84943736  0.56923195    -0.55200
C11         C  0.37275076  0.89164433  0.57331651     0.84800
O12         O  0.39003851  0.86873888  0.52638673    -0.57100
O13         O  0.36006302  0.83091270  0.53229737    -0.60400
In14       In  0.24663412  0.75432283  0.55275975     1.36900
C15         C  0.27036056  0.77140961  0.58098659     0.77300
O16         O  0.23216394  0.73608036  0.57797980    -0.61200
O17         O  0.25179348  0.72011494  0.55705146    -0.52100
C18         C  0.21179249  0.75633062  0.53131846     0.70000
O19         O  0.21447470  0.76668795  0.54771379    -0.46900
C20         C  0.26865632  0.77466570  0.52536065     0.74700
O21         O  0.25178865  0.77700149  0.57862038    -0.58800
O22         O  0.27005802  0.75524633  0.52705355    -0.48900
O23         O  0.27600934  0.75649288  0.56986928    -0.55200
C24         C  0.24048095  0.71922230  0.57304862     0.84800
O25         O  0.22666984  0.74475750  0.52657024    -0.57100
O26         O  0.25548638  0.78309279  0.53691781    -0.60400
In27       In  0.31298524  0.80084128  0.61836035     1.36900
C28         C  0.33702132  0.82176962  0.59247914     0.77300
O29         O  0.30344857  0.77617181  0.59611852    -0.61200
O30         O  0.28064889  0.79732016  0.60548749    -0.52100
C31         C  0.32498175  0.77192550  0.64485329     0.70000
O32         O  0.33414609  0.77508709  0.62798939    -0.46900
C33         C  0.30562691  0.83157610  0.64399582     0.74700
O34         O  0.34408438  0.80801110  0.60415128    -0.58800
O35         O  0.29152847  0.81989182  0.63760749    -0.48900
O36         O  0.31781458  0.82401446  0.59342976    -0.55200
C37         C  0.28501474  0.78180761  0.59475644     0.84800
O38         O  0.30996539  0.78364090  0.64808222    -0.57100
O39         O  0.32331940  0.82742539  0.63729613    -0.60400
In40       In  0.30460945  0.81026699  0.48643182     1.36900
C41         C  0.33151536  0.83052277  0.50974590     0.77300
O42         O  0.28151078  0.80637847  0.51199398    -0.61200
O43         O  0.29364604  0.77945980  0.49844949    -0.52100
C44         C  0.27581702  0.82679051  0.46275458     0.70000
O45         O  0.28424237  0.83662957  0.47717229    -0.46900
C46         C  0.33019162  0.79463781  0.45886217     0.74700
O47         O  0.31811125  0.83970937  0.49929990    -0.58800
O48         O  0.32108274  0.78393517  0.47222847    -0.48900
O49         O  0.33097086  0.81127789  0.50837763    -0.55200
C50         C  0.28156226  0.78705199  0.51151636     0.84800
O51         O  0.28221948  0.80869375  0.46057361    -0.57100
O52         O  0.32617325  0.81357058  0.45955277    -0.60400
In53       In  0.55415180  0.85348972  0.34943934     1.36900
C54         C  0.58071275  0.83296757  0.32686319     0.77300
O55         O  0.53885156  0.82316722  0.34612486    -0.61200
O56         O  0.52697478  0.84839885  0.32867778    -0.52100
C57         C  0.53610820  0.85697977  0.38623219     0.70000
O58         O  0.55238369  0.84653559  0.38366778    -0.46900
C59         C  0.57323401  0.88941258  0.34459570     0.74700
O60         O  0.58073097  0.83140561  0.34644212    -0.58800
O61         O  0.55605502  0.88550134  0.33626327    -0.48900
O62         O  0.56804154  0.84562606  0.31949459    -0.55200
C63         C  0.52634924  0.82928708  0.33260225     0.84800
O64         O  0.52991447  0.86612435  0.37021941    -0.57100
O65         O  0.57993653  0.87529616  0.35617172    -0.60400
In66       In  0.55114343  0.73701891  0.23582725     1.36900
C67         C  0.52496262  0.75407284  0.26187717     0.77300
O68         O  0.57097451  0.74526657  0.26202779    -0.61200
O69         O  0.57243094  0.76422982  0.23502400    -0.52100
C70         C  0.57703035  0.70566553  0.22961462     0.70000
O71         O  0.56253440  0.70479650  0.24275686    -0.46900
C72         C  0.52559754  0.73502544  0.20383240     0.74700
O73         O  0.53026004  0.73537905  0.26393540    -0.58800
O74         O  0.54083357  0.74717084  0.20425344    -0.48900
O75         O  0.53188750  0.76294109  0.24600880    -0.55200
C76         C  0.57809817  0.76117968  0.25351554     0.84800
O77         O  0.57739956  0.72206315  0.21918020    -0.57100
O78         O  0.52409245  0.72340876  0.21942910    -0.60400
In79       In  0.48877662  0.78820270  0.30179794     1.36900
C80         C  0.51231950  0.76560656  0.27670256     0.77300
O81         O  0.46067654  0.78085824  0.28375995    -0.61200
O82         O  0.47385901  0.81048528  0.28021049    -0.52100
C83         C  0.46389920  0.77627631  0.33181779     0.70000
O84         O  0.47518419  0.76361847  0.32235287    -0.46900
C85         C  0.51293281  0.81480751  0.32166855     0.74700
O86         O  0.50593074  0.75866398  0.29371523    -0.58800
O87         O  0.49990371  0.82037070  0.30852935    -0.48900
O88         O  0.50739106  0.78393746  0.27323482    -0.55200
C89         C  0.45990619  0.79810138  0.27500653     0.84800
O90         O  0.46601960  0.79465300  0.32621462    -0.57100
O91         O  0.51398576  0.79565168  0.32430896    -0.60400
In92       In  0.61648824  0.79913485  0.28653347     1.36900
C93         C  0.59145151  0.77512371  0.26497799     0.77300
O94         O  0.64296297  0.77942346  0.27793054    -0.61200
O95         O  0.63132343  0.77685354  0.30844500    -0.52100
C96         C  0.64006356  0.82834554  0.27057740     0.70000
O97         O  0.62561483  0.82010237  0.26067508    -0.46900
C98         C  0.59366462  0.82072981  0.31302789     0.74700
O99         O  0.59987992  0.79067159  0.25714041    -0.58800
O100        O  0.60764688  0.80885523  0.31904778    -0.48900
O101        O  0.59520012  0.77240330  0.28381362    -0.55200
C102        C  0.64428862  0.77082080  0.29527499     0.84800
O103        O  0.64223973  0.82174542  0.28872380    -0.57100
O104        O  0.59126701  0.82122606  0.29378540    -0.60400
In105      In  0.76304154  0.56301349  0.19751992     1.36900
C106        C  0.78379850  0.58969263  0.21969221     0.77300
O107        O  0.74155520  0.58892107  0.19040668    -0.61200
O108        O  0.73089472  0.56567621  0.21090075    -0.52100
C109        C  0.76011222  0.54413180  0.16099826     0.70000
O110        O  0.77122786  0.55995830  0.16354880    -0.46900
C111        C  0.78746025  0.53566040  0.21443629     0.74700
O112        O  0.78471663  0.59006034  0.20006746    -0.58800
O113        O  0.76830463  0.53586385  0.21841054    -0.48900
O114        O  0.77173384  0.57653599  0.22733389    -0.55200
C115        C  0.72728945  0.58275612  0.20219444     0.84800
O116        O  0.74998364  0.53885622  0.17681555    -0.57100
O117        O  0.79341945  0.54834501  0.20097432    -0.60400
In118      In  0.87603591  0.56235519  0.31279095     1.36900
C119        C  0.86081967  0.53663108  0.28531101     0.77300
O120        O  0.88874406  0.53606918  0.33124828    -0.61200
O121        O  0.86207130  0.55105485  0.34276139    -0.52100
C122        C  0.90899955  0.58532808  0.32127107     0.70000
O123        O  0.90954227  0.57077972  0.30825570    -0.46900
C124        C  0.85347393  0.59087342  0.29487598     0.74700
O125        O  0.87942099  0.54245589  0.28416347    -0.58800
O126        O  0.84954589  0.58467618  0.31303663    -0.48900
O127        O  0.85108420  0.54294305  0.30087395    -0.55200
C128        C  0.87502812  0.53672948  0.34509345     0.84800
O129        O  0.89176514  0.58763305  0.33003140    -0.57100
O130        O  0.86960145  0.58363390  0.28688330    -0.60400
In131      In  0.81495128  0.62760963  0.25989083     1.36900
C132        C  0.83994749  0.60450423  0.28307269     0.77300
O133        O  0.79660589  0.59972466  0.25244360    -0.61200
O134        O  0.80553837  0.61867373  0.22735109    -0.52100
C135        C  0.78365383  0.64680855  0.27759761     0.70000
O136        O  0.80069037  0.64444879  0.28652485    -0.46900
C137        C  0.83677860  0.65931950  0.24616421     0.74700
O138        O  0.82229430  0.60967129  0.28899821    -0.58800
O139        O  0.83743904  0.64196144  0.23759586    -0.48900
O140        O  0.84479786  0.61116617  0.26551888    -0.55200
C141        C  0.79578122  0.60303883  0.23332013     0.84800
O142        O  0.78268620  0.63915006  0.25977573    -0.57100
O143        O  0.82475450  0.66037155  0.26131816    -0.60400
In144      In  0.82969310  0.49931489  0.24433112     1.36900
C145        C  0.85037155  0.52378056  0.27001645     0.77300
O146        O  0.82142455  0.52562010  0.22384883    -0.61200
O147        O  0.79706827  0.50778208  0.23653972    -0.52100
C148        C  0.84578365  0.47717321  0.21380619     0.70000
O149        O  0.82814853  0.48500074  0.21314327    -0.46900
C150        C  0.81654035  0.46983274  0.26915656     0.74700
O151        O  0.85782807  0.51855347  0.25284847    -0.58800
O152        O  0.80521576  0.48441031  0.26349711    -0.48900
O153        O  0.83249950  0.51731184  0.27329705    -0.55200
C154        C  0.80227943  0.52258171  0.22516225     0.84800
O155        O  0.85570051  0.48125237  0.22996078    -0.57100
O156        O  0.83434203  0.47006182  0.26155411    -0.60400
In157      In  0.73442639  0.05461790  0.30306269     1.36900
C158        C  0.75207617  0.08075974  0.27760615     0.77300
O159        O  0.72337391  0.08199952  0.32097923    -0.61200
O160        O  0.74529495  0.06223429  0.33499424    -0.52100
C161        C  0.70075152  0.03176671  0.30847634     0.70000
O162        O  0.70076399  0.04726444  0.29660087    -0.46900
C163        C  0.75841618  0.02664824  0.28621579     0.74700
O164        O  0.73349718  0.07537172  0.27497097    -0.58800
O165        O  0.76113767  0.03264229  0.30461671    -0.48900
O166        O  0.76057267  0.07371573  0.29352582    -0.55200
C167        C  0.73474123  0.07849402  0.33637118     0.84800
O168        O  0.71751871  0.02882363  0.31774001    -0.57100
O169        O  0.74277564  0.03386642  0.27736147    -0.60400
In170      In  0.85039915  0.05391893  0.19189745     1.36900
C171        C  0.83007881  0.02659678  0.21389180     0.77300
O172        O  0.87241296  0.02874648  0.18381792    -0.61200
O173        O  0.88235667  0.05157555  0.20510192    -0.52100
C174        C  0.85316544  0.07396928  0.15601476     0.70000
O175        O  0.84300708  0.05738830  0.15779141    -0.46900
C176        C  0.82658193  0.08130407  0.20954089     0.74700
O177        O  0.82850620  0.02700598  0.19431847    -0.58800
O178        O  0.84571841  0.08055601  0.21331112    -0.48900
O179        O  0.84249105  0.03936612  0.22153413    -0.55200
C180        C  0.88640340  0.03489009  0.19585799     0.84800
O181        O  0.86253695  0.07930560  0.17220561    -0.57100
O182        O  0.82017052  0.06886643  0.19607453    -0.60400
In183      In  0.79767066  0.98875611  0.25344571     1.36900
C184        C  0.77258253  0.01307232  0.27513691     0.77300
O185        O  0.81822271  0.01535955  0.24673728    -0.61200
O186        O  0.80738370  0.99824983  0.22115351    -0.52100
C187        C  0.82880420  0.96817825  0.26996402     0.70000
O188        O  0.82640558  0.96997887  0.25073123    -0.46900
C189        C  0.77142754  0.95949995  0.24235569     0.74700
O190        O  0.78841685  0.00526794  0.28299066    -0.58800
O191        O  0.78295473  0.95803999  0.25782478    -0.48900
O192        O  0.76995545  0.00877395  0.25644698    -0.55200
C193        C  0.81822815  0.01297494  0.22745365     0.84800
O194        O  0.81506997  0.97673647  0.28072450    -0.57100
O195        O  0.77391412  0.97563333  0.23196623    -0.60400
In196      In  0.78641944  0.11902388  0.24041893     1.36900
C197        C  0.76378942  0.09394403  0.26358934     0.77300
O198        O  0.79313472  0.09345036  0.21847954    -0.61200
O199        O  0.81838400  0.10864115  0.23274274    -0.52100
C200        C  0.77144598  0.14452822  0.21241835     0.70000
O201        O  0.76245716  0.14112138  0.22925903    -0.46900
C202        C  0.80167812  0.14507486  0.26751359     0.74700
O203        O  0.75737253  0.10040997  0.24647476    -0.58800
O204        O  0.81271458  0.13220936  0.25817572    -0.48900
O205        O  0.78169708  0.09951437  0.26805427    -0.55200
C206        C  0.81239614  0.09491568  0.22045220     0.84800
O207        O  0.78776944  0.13459128  0.20975549    -0.57100
O208        O  0.78310439  0.14515614  0.26221758    -0.60400
In209      In  0.05359950  0.87546564  0.23740947     1.36900
C210        C  0.08046274  0.86039445  0.26376369     0.77300
O211        O  0.03387601  0.86885063  0.26452750    -0.61200
O212        O  0.03170144  0.84851967  0.23874938    -0.52100
C213        C  0.03033786  0.90856711  0.22983914     0.70000
O214        O  0.04494184  0.90894169  0.24275427    -0.46900
C215        C  0.07766368  0.87355102  0.20395576     0.74700
O216        O  0.07602610  0.87939646  0.26397727    -0.58800
O217        O  0.06208694  0.86208422  0.20629575    -0.48900
O218        O  0.07230276  0.85014473  0.24948577    -0.55200
C219        C  0.02658735  0.85243895  0.25724038     0.84800
O220        O  0.02809837  0.89149045  0.22087364    -0.57100
O221        O  0.08034354  0.88629889  0.21841109    -0.60400
In222      In  0.11811544  0.82863625  0.30372943     1.36900
C223        C  0.09348944  0.84996284  0.27891625     0.77300
O224        O  0.14314946  0.83537011  0.28094788    -0.61200
O225        O  0.13058355  0.80521444  0.28233739    -0.52100
C226        C  0.14380119  0.84094401  0.33281742     0.70000
O227        O  0.12809639  0.85127701  0.32809604    -0.46900
C228        C  0.09555977  0.80237839  0.32591125     0.74700
O229        O  0.10434073  0.85884188  0.29231982    -0.58800
O230        O  0.10860322  0.79654290  0.31283320    -0.48900
O231        O  0.09454883  0.83070352  0.27920372    -0.55200
C232        C  0.14290662  0.81741003  0.27363073     0.84800
O233        O  0.14629450  0.82485753  0.32236819    -0.57100
O234        O  0.09379656  0.82159321  0.32743802    -0.60400
In235      In  0.05616822  0.76393959  0.35685929     1.36900
C236        C  0.02825852  0.78308808  0.33487991     0.77300
O237        O  0.07071621  0.79445243  0.35177552    -0.61200
O238        O  0.08251311  0.76883278  0.33481060    -0.52100
C239        C  0.07535696  0.76175078  0.39319631     0.70000
O240        O  0.05901932  0.77213716  0.39088512    -0.46900
C241        C  0.03783968  0.72743416  0.35361605     0.74700
O242        O  0.02865576  0.78497481  0.35442620    -0.58800
O243        O  0.05438773  0.73166517  0.34412755    -0.48900
O244        O  0.04119084  0.77078002  0.32732902    -0.55200
C245        C  0.08286518  0.78808174  0.33797278     0.84800
O246        O  0.08107706  0.75220907  0.37720168    -0.57100
O247        O  0.03146131  0.74153790  0.36542006    -0.60400
In248      In  0.99092549  0.81520440  0.29477640     1.36900
C249        C  0.01398072  0.83881151  0.27011503     0.77300
O250        O  0.98208293  0.84380521  0.31214901    -0.61200
O251        O  0.95836270  0.82541601  0.29982937    -0.52100
C252        C  0.96882842  0.78738869  0.27477850     0.70000
O253        O  0.97402602  0.80430109  0.26681539    -0.46900
C254        C  0.01468091  0.79469216  0.32118875     0.74700
O255        O  0.00724688  0.82163496  0.26432213    -0.58800
O256        O  0.99933012  0.80480190  0.32719819    -0.48900
O257        O  0.00954164  0.84337253  0.28841732    -0.55200
C258        C  0.96315863  0.84181572  0.30886360     0.84800
O259        O  0.97515522  0.78466152  0.29296367    -0.57100
O260        O  0.01784944  0.79533603  0.30204147    -0.60400
In261      In  0.35066834  0.73663180  0.04519228     1.36900
C262        C  0.33079986  0.75846759  0.07264762     0.77300
O263        O  0.36864888  0.72277240  0.07118604    -0.61200
O264        O  0.38361772  0.74485858  0.05214933    -0.52100
C265        C  0.34995781  0.70220705  0.02307836     0.70000
O266        O  0.33829032  0.70475157  0.03859660    -0.46900
C267        C  0.33351718  0.76064052  0.01720958     0.74700
O268        O  0.32586244  0.73984434  0.06940113    -0.58800
O269        O  0.35283537  0.76029374  0.01987293    -0.48900
O270        O  0.34632767  0.76488910  0.06292546    -0.55200
C271        C  0.38464455  0.73334148  0.06788518     0.84800
O272        O  0.36226849  0.71685502  0.01974879    -0.57100
O273        O  0.32344271  0.74796022  0.02793789    -0.60400
In274      In  0.25068052  0.86346270  0.04285436     1.36900
C275        C  0.26914861  0.84066064  0.01479930     0.77300
O276        O  0.23937800  0.88412441  0.01785114    -0.61200
O277        O  0.26318190  0.89546968  0.03724099    -0.52100
C278        C  0.21644170  0.86689591  0.06543345     0.70000
O279        O  0.21723253  0.85605160  0.04917934    -0.46900
C280        C  0.27040285  0.84063580  0.06978866     0.74700
O281        O  0.24982551  0.83962218  0.01753287    -0.58800
O282        O  0.27503789  0.85945606  0.06732612    -0.48900
O283        O  0.27826787  0.85423825  0.02521760    -0.55200
C284        C  0.25169081  0.89863237  0.02177442     0.84800
O285        O  0.23285207  0.87654400  0.06936433    -0.57100
O286        O  0.25524361  0.83435404  0.05947643    -0.60400
In287      In  0.29933313  0.79984205  0.10862223     1.36900
C288        C  0.31924113  0.77258102  0.08575894     0.77300
O289        O  0.27697114  0.80766741  0.08393969    -0.61200
O290        O  0.29624193  0.83164521  0.09472804    -0.52100
C291        C  0.26694686  0.79517768  0.13224373     0.70000
O292        O  0.27379007  0.78054257  0.12144039    -0.46900
C293        C  0.32707187  0.80648409  0.13747288     0.74700
O294        O  0.30339162  0.76769919  0.09582138    -0.58800
O295        O  0.32481461  0.81845142  0.12234603    -0.48900
O296        O  0.32440630  0.79114323  0.08718499    -0.55200
C297        C  0.28159598  0.82642918  0.08318541     0.84800
O298        O  0.27699523  0.81167790  0.13107428    -0.57100
O299        O  0.31515531  0.79124546  0.13765523    -0.60400
In300      In  0.30358174  0.80132415  0.97832485     1.36900
C301        C  0.32311976  0.77509452  0.00333453     0.77300
O302        O  0.30017541  0.82680850  0.00123674    -0.61200
O303        O  0.27284932  0.81323510  0.99011625    -0.52100
C304        C  0.32243861  0.82933901  0.95511103     0.70000
O305        O  0.32989969  0.82259961  0.97166974    -0.46900
C306        C  0.28784615  0.77461106  0.95175853     0.74700
O307        O  0.33247367  0.78626984  0.99058435    -0.58800
O308        O  0.27677560  0.78570242  0.96321642    -0.48900
O309        O  0.30393465  0.77752091  0.00352425    -0.55200
C310        C  0.28086344  0.82664596  0.00151926     0.84800
O311        O  0.30555980  0.82128313  0.95011401    -0.57100
O312        O  0.30689340  0.77765731  0.95358368    -0.60400
In313      In  0.34550641  0.54803956  0.84592597     1.36900
C314        C  0.32343713  0.51980701  0.82706586     0.77300
O315        O  0.31537515  0.56318316  0.84151786    -0.61200
O316        O  0.34095958  0.57457575  0.82415543    -0.52100
C317        C  0.34848440  0.56797016  0.88175224     0.70000
O318        O  0.33859844  0.55126168  0.88010763    -0.46900
C319        C  0.38168093  0.52962374  0.84016920     0.74700
O320        O  0.32333755  0.52118878  0.84662483    -0.58800
O321        O  0.37671007  0.54580687  0.83055957    -0.48900
O322        O  0.33557847  0.53182811  0.81787400    -0.55200
C323        C  0.32183270  0.57546114  0.82792475     0.84800
O324        O  0.35761964  0.57349590  0.86545625    -0.57100
O325        O  0.36861933  0.52378022  0.85339676    -0.60400
In326      In  0.22887713  0.54761112  0.73513440     1.36900
C327        C  0.24648806  0.57407819  0.75991792     0.77300
O328        O  0.23465828  0.52821981  0.76250108    -0.61200
O329        O  0.25436581  0.52427162  0.73622727    -0.52100
C330        C  0.19650791  0.52371939  0.72822716     0.70000
O331        O  0.19613066  0.53804027  0.74152257    -0.46900
C332        C  0.22849402  0.57320621  0.70299336     0.74700
O333        O  0.22728735  0.57058463  0.76124947    -0.58800
O334        O  0.24093004  0.55825044  0.70421001    -0.48900
O335        O  0.25581093  0.56476488  0.74563020    -0.55200
C336        C  0.25028391  0.51958399  0.75484513     0.84800
O337        O  0.21315251  0.52234668  0.71818414    -0.57100
O338        O  0.21579176  0.57431592  0.71776834    -0.60400
In339      In  0.28640708  0.48234461  0.79143927     1.36900
C340        C  0.26309311  0.50601038  0.76743528     0.77300
O341        O  0.27165887  0.45162176  0.78970860    -0.61200
O342        O  0.26073911  0.47209520  0.81263510    -0.52100
C343        C  0.31457436  0.45820442  0.77517866     0.65200
O344        O  0.30328890  0.46965076  0.76434471    -0.46900
C345        C  0.31002078  0.50622102  0.81512110     0.74700
O346        O  0.27890346  0.49711491  0.76074638    -0.58800
O347        O  0.29847187  0.49271323  0.82280677    -0.48900
O348        O  0.25936549  0.50292397  0.78624557    -0.55200
C349        C  0.25933934  0.45463148  0.80435468     0.84800
O350        O  0.31135550  0.45919414  0.79437189    -0.57100
O351        O  0.30902934  0.50765365  0.79582713    -0.60400
In352      In  0.28120132  0.61249762  0.79647535     1.36900
C353        C  0.25803096  0.58752621  0.77375728     0.77300
O354        O  0.30855087  0.63015252  0.78503378    -0.61200
O355        O  0.28189369  0.62894590  0.76622759    -0.52100
C356        C  0.26463419  0.63833884  0.82408450     0.70000
O357        O  0.26877274  0.64350302  0.80585601    -0.46900
C358        C  0.30765274  0.58894432  0.81688428     0.74700
O359        O  0.25008540  0.59970043  0.78659353    -0.58800
O360        O  0.31347740  0.60298752  0.80489063    -0.48900
O361        O  0.27731762  0.58779313  0.77326548    -0.55200
C362        C  0.30015138  0.63514607  0.76823403     0.84800
O363        O  0.26805942  0.61975520  0.82788526    -0.57100
O364        O  0.28845558  0.58696660  0.81839090    -0.60400
In365      In  0.26230800  0.06049936  0.85140112     1.36900
C366        C  0.28241411  0.08861105  0.83016441     0.77300
O367        O  0.29269907  0.04553689  0.84875510    -0.61200
O368        O  0.26810846  0.03436349  0.82984345    -0.52100
C369        C  0.25828734  0.03949970  0.88643686     0.70000
O370        O  0.26882519  0.05592818  0.88551282    -0.46900
C371        C  0.22571307  0.07774229  0.84635207     0.74700
O372        O  0.28332540  0.08829779  0.84978826    -0.58800
O373        O  0.23092160  0.06131394  0.83726913    -0.48900
O374        O  0.27086834  0.07527264  0.82215142    -0.55200
C375        C  0.28693551  0.03331187  0.83480079     0.84800
O376        O  0.24906274  0.03498372  0.86993062    -0.57100
O377        O  0.23900544  0.08476759  0.85872708    -0.60400
In378      In  0.31429664  0.12715707  0.79060134     1.36900
C379        C  0.33736269  0.10218614  0.76757468     0.77300
O380        O  0.34480235  0.13850892  0.80191036    -0.61200
O381        O  0.31961564  0.15886945  0.80330801    -0.52100
C382        C  0.28829660  0.14991307  0.76889359     0.70000
O383        O  0.28334108  0.14076513  0.78531768    -0.46900
C384        C  0.29397144  0.10273330  0.81682198     0.74700
O385        O  0.32155452  0.11076142  0.76042321    -0.58800
O386        O  0.30548542  0.11691816  0.82317958    -0.48900
O387        O  0.34106934  0.10632050  0.78614310    -0.55200
C388        C  0.33858681  0.15634953  0.80583234     0.84800
O389        O  0.30658534  0.14686469  0.76310278    -0.57100
O390        O  0.29309336  0.10119610  0.79751759    -0.60400
In391      In  0.37319767  0.05936042  0.73829344     1.36900
C392        C  0.35832762  0.03282002  0.76529807     0.77300
O393        O  0.36655952  0.08078268  0.76388797    -0.61200
O394        O  0.34639313  0.08145689  0.73794152    -0.52100
C395        C  0.40589725  0.08242803  0.72892396     0.70000
O396        O  0.40619362  0.06939646  0.74347885    -0.46900
C397        C  0.37297873  0.03377043  0.70638065     0.74700
O398        O  0.37706313  0.03829148  0.76593692    -0.58800
O399        O  0.36104928  0.04911255  0.70748102    -0.48900
O400        O  0.34808424  0.04021947  0.75058967    -0.55200
C401        C  0.35045925  0.08799310  0.75591180     0.84800
O402        O  0.38914869  0.08309125  0.71916158    -0.57100
O403        O  0.38510546  0.03190276  0.72146911    -0.60400
In404      In  0.32788443  0.99468775  0.80616156     1.36900
C405        C  0.34828633  0.01926996  0.78036352     0.77300
O406        O  0.30526203  0.97748461  0.78713254    -0.61200
O407        O  0.33651891  0.96809140  0.78628884    -0.52100
C408        C  0.33916231  0.97123894  0.83760758     0.70000
O409        O  0.32137183  0.97140069  0.83009400    -0.46900
C410        C  0.30142527  0.01947033  0.82471101     0.74700
O411        O  0.35703529  0.01128940  0.79575427    -0.58800
O412        O  0.29592856  0.00630729  0.81166007    -0.48900
O413        O  0.32954036  0.01496335  0.77870508    -0.55200
C414        C  0.31843551  0.96524293  0.77994954     0.84800
O415        O  0.35159536  0.98358411  0.82915976    -0.57100
O416        O  0.32046923  0.02012340  0.82816479    -0.60400
In417      In  0.55353548  0.26209061  0.69089525     1.36900
C418        C  0.52647439  0.28326352  0.71233313     0.77300
O419        O  0.52719332  0.24157674  0.68253659    -0.61200
O420        O  0.54992942  0.22970979  0.70285690    -0.52100
C421        C  0.57350703  0.25892626  0.65494678     0.70000
O422        O  0.55721696  0.26948264  0.65684388    -0.46900
C423        C  0.58101724  0.28455162  0.71022989     0.74700
O424        O  0.52843325  0.28598189  0.69297981    -0.58800
O425        O  0.57945428  0.26538000  0.71350052    -0.48900
O426        O  0.53742858  0.26921021  0.71993705    -0.55200
C427        C  0.53289197  0.22681371  0.69384369     0.84800
O428        O  0.57881549  0.24959385  0.67117158    -0.57100
O429        O  0.56958665  0.29160798  0.69623687    -0.60400
In430      In  0.55652114  0.37620274  0.80546963     1.36900
C431        C  0.58381340  0.35874509  0.78138421     0.77300
O432        O  0.58206044  0.39014125  0.82399040    -0.61200
O433        O  0.56586857  0.36484874  0.83706401    -0.52100
C434        C  0.53086975  0.40753728  0.81082879     0.70000
O435        O  0.54587997  0.40849499  0.79828136    -0.46900
C436        C  0.52964909  0.35345713  0.78547363     0.74700
O437        O  0.57966982  0.37773849  0.77938238    -0.58800
O438        O  0.53354724  0.35048560  0.80444788    -0.48900
O439        O  0.57520260  0.34978331  0.79635512    -0.55200
C440        C  0.58043462  0.37767887  0.83890364     0.84800
O441        O  0.52988571  0.39105084  0.82108304    -0.57100
O442        O  0.53871275  0.36856816  0.77729920    -0.60400
In443      In  0.61929323  0.32303809  0.74282614     1.36900
C444        C  0.59666219  0.34686579  0.76717806     0.77300
O445        O  0.59393403  0.31735560  0.72025783    -0.61200
O446        O  0.60717943  0.29156627  0.73514741    -0.52100
C447        C  0.64367909  0.33171443  0.71170363     0.70000
O448        O  0.64232498  0.31413910  0.71968411    -0.46900
C449        C  0.64731453  0.31203310  0.76978619     0.74700
O450        O  0.60634791  0.35425068  0.75200817    -0.58800
O451        O  0.64878252  0.32826461  0.75931130    -0.48900
O452        O  0.59825847  0.32774951  0.76925237    -0.55200
C453        C  0.59446805  0.29809456  0.72213048     0.84800
O454        O  0.63240283  0.34531261  0.71984144    -0.57100
O455        O  0.63129464  0.30163066  0.76663120    -0.60400
In456      In  0.48992636  0.31729196  0.75184036     1.36900
C457        C  0.51591275  0.34024394  0.77345629     0.77300
O458        O  0.51128414  0.29150937  0.74462816    -0.61200
O459        O  0.50338286  0.31122444  0.71994002    -0.52100
C460        C  0.46494911  0.29020395  0.76947036     0.70000
O461        O  0.46219090  0.29712717  0.75157615    -0.46900
C462        C  0.46152311  0.34493811  0.74289266     0.74700
O463        O  0.50537151  0.32612802  0.78151121    -0.58800
O464        O  0.47109981  0.34456431  0.75969970    -0.48900
O465        O  0.51372041  0.34218709  0.75419656    -0.55200
C466        C  0.51319424  0.29562202  0.72577061     0.84800
O467        O  0.48092117  0.29673462  0.77822133    -0.57100
O468        O  0.46695040  0.33141324  0.73006059    -0.60400
In469      In  0.85463239  0.25010817  0.00141341     1.36900
C470        C  0.83559554  0.27253148  0.97342273     0.77300
O471        O  0.82734941  0.25997278  0.01940549    -0.61200
O472        O  0.85622784  0.27379739  0.02676312    -0.52100
C473        C  0.85352861  0.21432373  0.02153322     0.70000
O474        O  0.84169736  0.21811483  0.00648253    -0.46900
C475        C  0.88931587  0.24585349  0.97977252     0.74700
O476        O  0.83061130  0.25391195  0.97653481    -0.58800
O477        O  0.88842408  0.25682208  0.99593581    -0.48900
O478        O  0.85065634  0.27891550  0.98381512    -0.55200
C479        C  0.83695563  0.27319792  0.02982359     0.84800
O480        O  0.86580966  0.22872502  0.02585691    -0.57100
O481        O  0.87272251  0.23676403  0.97538606    -0.60400
In482      In  0.80520461  0.31330201  0.06789168     1.36900
C483        C  0.78285809  0.33719401  0.04307316     0.77300
O484        O  0.80485883  0.33475135  0.09503902    -0.61200
O485        O  0.83228304  0.33225527  0.07757560    -0.52100
C486        C  0.78921828  0.28669577  0.09417448     0.70000
O487        O  0.77830226  0.29725396  0.08218329    -0.46900
C488        C  0.82598400  0.28731361  0.04361207     0.74700
O489        O  0.77474780  0.32379613  0.05442341    -0.58800
O490        O  0.83480654  0.30043531  0.05469254    -0.48900
O491        O  0.80209900  0.33825305  0.04441416    -0.55200
C492        C  0.82326859  0.34035324  0.09272181     0.84800
O493        O  0.80821061  0.29031421  0.09311210    -0.57100
O494        O  0.80669464  0.28762135  0.04477439    -0.60400
In495      In  0.75335118  0.37276393  0.00032070     1.36900
C496        C  0.77382876  0.35120098  0.97278381     0.77300
O497        O  0.78062489  0.36359833  0.01815761    -0.61200
O498        O  0.75211196  0.34905028  0.02581925    -0.52100
C499        C  0.75398542  0.40795646  0.02156084     0.70000
O500        O  0.76591834  0.40460124  0.00642600    -0.46900
C501        C  0.71982884  0.37545472  0.97689979     0.74700
O502        O  0.77813270  0.36994973  0.97609262    -0.58800
O503        O  0.72047541  0.36421295  0.99288768    -0.48900
O504        O  0.75877716  0.34418698  0.98285835    -0.55200
C505        C  0.77135613  0.35034554  0.02886992     0.84800
O506        O  0.74120671  0.39370164  0.02500755    -0.57100
O507        O  0.73586749  0.38601856  0.97383196    -0.60400
In508      In  0.80600790  0.31268580  0.93402701     1.36900
C509        C  0.78548470  0.33788806  0.95884008     0.77300
O510        O  0.78450606  0.32267206  0.90935048    -0.61200
O511        O  0.78515412  0.29104976  0.91737689    -0.52100
C512        C  0.83613323  0.32165263  0.90811042     0.70000
O513        O  0.82985143  0.33430058  0.92142651    -0.46900
C514        C  0.82472845  0.28639672  0.95933488     0.74700
O515        O  0.80104090  0.34372215  0.94883648    -0.58800
O516        O  0.80947942  0.28118065  0.94863176    -0.48900
O517        O  0.78072091  0.31931168  0.95631841    -0.55200
C518        C  0.77775824  0.30485651  0.90596571     0.84800
O519        O  0.82703489  0.30459747  0.90828464    -0.57100
O520        O  0.82997819  0.30489345  0.95733991    -0.60400
In521      In  0.05323611  0.34222777  0.69512517     1.36900
C522        C  0.08144815  0.32278546  0.71674439     0.77300
O523        O  0.07803130  0.36440284  0.68655200    -0.61200
O524        O  0.05472221  0.37458742  0.70729261    -0.52100
C525        C  0.03396917  0.34414379  0.65884165     0.70000
O526        O  0.05008019  0.33345135  0.66130036    -0.46900
C527        C  0.02568516  0.31969749  0.71444958     0.74700
O528        O  0.08028566  0.32039529  0.69730147    -0.58800
O529        O  0.02660382  0.33898406  0.71705760    -0.48900
O530        O  0.06903626  0.33557984  0.72435857    -0.55200
C531        C  0.07137801  0.37868136  0.69798077     0.84800
O532        O  0.02852954  0.35411405  0.67463802    -0.57100
O533        O  0.03794423  0.31246234  0.70121604    -0.60400
In534      In  0.05470119  0.23125852  0.81155605     1.36900
C535        C  0.02663394  0.24797997  0.78769296     0.77300
O536        O  0.02896929  0.21936425  0.83136916    -0.61200
O537        O  0.04709180  0.24378735  0.84325995    -0.52100
C538        C  0.07726119  0.19730187  0.81591571     0.70000
O539        O  0.06297849  0.19847233  0.80270637    -0.46900
C540        C  0.08256059  0.25398591  0.79219739     0.74700
O541        O  0.03033830  0.22885249  0.78677124    -0.58800
O542        O  0.07862627  0.25655952  0.81121191    -0.48900
O543        O  0.03635034  0.25769609  0.80135293    -0.55200
C544        C  0.03180350  0.23199360  0.84589738     0.84800
O545        O  0.07932356  0.21316049  0.82692854    -0.57100
O546        O  0.07325513  0.23919691  0.78383288    -0.60400
In547      In  0.11999843  0.29173864  0.75666292     1.36900
C548        C  0.09612212  0.26744743  0.78004159     0.77300
O549        O  0.09362450  0.31234896  0.74958689    -0.61200
O550        O  0.10974723  0.29998601  0.72406867    -0.52100
C551        C  0.13944984  0.31944565  0.77938226     0.70000
O552        O  0.13995345  0.30050708  0.78348699    -0.46900
C553        C  0.15055532  0.27012807  0.73976334     0.74700
O554        O  0.10641957  0.28196795  0.78758257    -0.58800
O555        O  0.13348562  0.26241698  0.74456941    -0.48900
O556        O  0.09792825  0.26554771  0.76080652    -0.55200
C557        C  0.09540355  0.31139174  0.73028904     0.84800
O558        O  0.12894548  0.32405122  0.76374915    -0.57100
O559        O  0.15175646  0.28915619  0.74283110    -0.60400
In560      In  0.98886220  0.28092200  0.74879142     1.36900
C561        C  0.01292740  0.25899391  0.77366683     0.77300
O562        O  0.01435283  0.28701558  0.72633950    -0.61200
O563        O  0.99811941  0.31266253  0.73800875    -0.52100
C564        C  0.96377696  0.26476568  0.72063555     0.70000
O565        O  0.98269237  0.26093112  0.72104292    -0.46900
C566        C  0.96512748  0.29836087  0.77669461     0.74700
O567        O  0.00104665  0.25048730  0.76097801    -0.58800
O568        O  0.97501819  0.30860761  0.76344728    -0.48900
O569        O  0.01254429  0.27827657  0.77333435    -0.55200
C570        C  0.01223108  0.30620586  0.72644822     0.84800
O571        O  0.95767781  0.27613572  0.73504420    -0.57100
O572        O  0.96716856  0.27910783  0.77534073    -0.60400
In573      In  0.86678687  0.35467656  0.49464387     1.36900
C574        C  0.84532120  0.33570904  0.46589712     0.77300
O575        O  0.85776162  0.32579466  0.51004762    -0.61200
O576        O  0.84338260  0.35357885  0.52030241    -0.52100
C577        C  0.90119341  0.35267182  0.51683652     0.70000
O578        O  0.89935007  0.34325641  0.49978649    -0.46900
C579        C  0.86988305  0.39072136  0.47525745     0.74700
O580        O  0.86423463  0.33172605  0.46863044    -0.58800
O581        O  0.85806333  0.38812745  0.49064066    -0.48900
O582        O  0.83818597  0.35003624  0.47687555    -0.55200
C583        C  0.84475880  0.33416747  0.52179894     0.84800
O584        O  0.88591066  0.36364813  0.52164096    -0.57100
O585        O  0.88052303  0.37515592  0.47059864    -0.60400
In586      In  0.74486794  0.25141229  0.49413889     1.36900
C587        C  0.76684174  0.27228448  0.46673310     0.77300
O588        O  0.75498140  0.27765650  0.51280330    -0.61200
O589        O  0.76882531  0.24840775  0.51874152    -0.52100
C590        C  0.70941324  0.25253607  0.51522580     0.70000
O591        O  0.71274537  0.26404773  0.49978629    -0.46900
C592        C  0.74257639  0.21679933  0.47276411     0.74700
O593        O  0.74785319  0.27596890  0.46940034    -0.58800
O594        O  0.75335302  0.21829468  0.48892048    -0.48900
O595        O  0.77382312  0.25758527  0.47719576    -0.55200
C596        C  0.76841777  0.26752634  0.52238294     0.84800
O597        O  0.72389865  0.24028010  0.51917362    -0.57100
O598        O  0.73243596  0.23271884  0.46830000    -0.60400
In599      In  0.80620257  0.30344872  0.42751020     1.36900
C600        C  0.78045146  0.28403770  0.45297747     0.77300
O601        O  0.82852166  0.28154905  0.41315610    -0.61200
O602        O  0.79673040  0.27822243  0.40645428    -0.52100
C603        C  0.79829388  0.33126146  0.39867288     0.70000
O604        O  0.81417386  0.32029367  0.39872541    -0.46900
C605        C  0.83189065  0.32419729  0.45188942     0.74700
O606        O  0.77437609  0.29791770  0.44088972    -0.58800
O607        O  0.83764085  0.30883879  0.44160225    -0.48900
O608        O  0.79952588  0.28076019  0.45246090    -0.55200
C609        C  0.81476084  0.27171996  0.40366959     0.84800
O610        O  0.78606895  0.32785309  0.41341475    -0.57100
O611        O  0.81319833  0.32867010  0.44984479    -0.60400
In612      In  0.80863223  0.29828812  0.55983315     1.36900
C613        C  0.78299082  0.27791417  0.53578112     0.77300
O614        O  0.78515863  0.29410265  0.58462524    -0.61200
O615        O  0.78942897  0.32388190  0.57186497    -0.52100
C616        C  0.83639091  0.28215141  0.58493472     0.70000
O617        O  0.83002879  0.27281576  0.56916791    -0.46900
C618        C  0.83197844  0.32171894  0.53557852     0.74700
O619        O  0.79581885  0.26872346  0.54695318    -0.58800
O620        O  0.82081852  0.32916642  0.54954899    -0.48900
O621        O  0.78382888  0.29717078  0.53650792    -0.55200
C622        C  0.77955517  0.31263244  0.58422675     0.84800
O623        O  0.82844419  0.29955492  0.58774209    -0.57100
O624        O  0.83121811  0.30246357  0.53408437    -0.60400
C625        C  0.95001310  0.25764822  0.70412486    -0.03600
C626        C  0.92880154  0.26111095  0.70577583    -0.09400
C627        C  0.91596467  0.25743066  0.68901286    -0.17100
C628        C  0.92413611  0.25025446  0.67039673     0.25100
C629        C  0.94512484  0.24583735  0.66888454    -0.18700
C630        C  0.95802319  0.24939734  0.68575203    -0.07700
C631        C  0.91111495  0.24965941  0.65255825    -0.14100
C632        C  0.89871310  0.25234351  0.63908838    -0.13800
C633        C  0.88279869  0.25910866  0.62538215     0.25000
C634        C  0.87798717  0.24823035  0.60740583    -0.19200
C635        C  0.86258032  0.25547979  0.59424594    -0.07700
C636        C  0.85200426  0.27370683  0.59896934    -0.03800
C637        C  0.85681127  0.28431646  0.61716077    -0.09100
C638        C  0.87207923  0.27705008  0.63025294    -0.16700
H639        H  0.92224062  0.26743014  0.71976359     0.11400
H640        H  0.89976607  0.26100084  0.69030626     0.10700
H641        H  0.95162373  0.24041369  0.65449040     0.10600
H642        H  0.97434366  0.24668020  0.68409184     0.11200
H643        H  0.88618264  0.23429841  0.60352495     0.11200
H644        H  0.85913893  0.24703078  0.58029411     0.11200
H645        H  0.84885870  0.29833524  0.62121899     0.11300
H646        H  0.87563959  0.28554514  0.64416434     0.10200
C647        C  0.91931785  0.35076422  0.53070233    -0.03600
C648        C  0.91854109  0.35940291  0.55058321    -0.09400
C649        C  0.93502866  0.35734239  0.56422399    -0.17100
C650        C  0.95274923  0.34667280  0.55834504     0.25100
C651        C  0.95374516  0.33800102  0.53852456    -0.18700
C652        C  0.93711855  0.33997033  0.52481201    -0.07700
C653        C  0.96958613  0.34475807  0.57291825    -0.14100
C654        C  0.98241260  0.34419646  0.58647993    -0.13800
C655        C  0.99625122  0.34462436  0.60405301     0.25000
C656        C  0.01301124  0.33114642  0.60543222    -0.19200
C657        C  0.02571659  0.33124077  0.62296352    -0.07700
C658        C  0.02177659  0.34476660  0.63942690    -0.03800
C659        C  0.00511271  0.35841357  0.63774025    -0.09100
C660        C  0.99253200  0.35835014  0.62025622    -0.16700
H661        H  0.90503699  0.36764855  0.55572399     0.11400
H662        H  0.93391348  0.36408319  0.57945516     0.10700
H663        H  0.96730779  0.32966142  0.53369620     0.10600
H664        H  0.93816448  0.33305771  0.50966687     0.11200
H665        H  0.01611415  0.32038859  0.59308561     0.11200
H666        H  0.03833238  0.32047261  0.62382677     0.11200
H667        H  0.00160192  0.36901924  0.65010792     0.11300
H668        H  0.97968133  0.36886720  0.61951538     0.10200
C669        C  0.85275973  0.32617359  0.89343011    -0.03600
C670        C  0.86230233  0.34553689  0.89294540    -0.09400
C671        C  0.87810207  0.34947843  0.87880571    -0.17100
C672        C  0.88435433  0.33407208  0.86514858     0.25100
C673        C  0.87491656  0.31480938  0.86563526    -0.18700
C674        C  0.85921080  0.31087041  0.87964883    -0.07700
C675        C  0.90063989  0.33726455  0.85063795    -0.14100
C676        C  0.91363461  0.33486115  0.83769370    -0.13800
C677        C  0.92727390  0.32626644  0.82266862     0.25000
C678        C  0.92903753  0.30490504  0.82164820    -0.19200
C679        C  0.94143816  0.29584647  0.80670163    -0.07700
C680        C  0.95220937  0.30808621  0.79254107    -0.03800
C681        C  0.95051977  0.32958235  0.79371055    -0.09100
C682        C  0.93803877  0.33865592  0.80873843    -0.16700
H683        H  0.85755926  0.35755657  0.90345110     0.11400
H684        H  0.88541586  0.36440875  0.87855257     0.10700
H685        H  0.87975225  0.30277083  0.85516167     0.10600
H686        H  0.85215213  0.29581688  0.87971737     0.11200
H687        H  0.92064645  0.29521185  0.83233667     0.11200
H688        H  0.94249907  0.27927439  0.80615733     0.11200
H689        H  0.95873694  0.33933158  0.78296531     0.11300
H690        H  0.93666383  0.35520435  0.80938322     0.10200
C691        C  0.90791899  0.24407899  0.96643977    -0.03600
C692        C  0.92651829  0.25384656  0.97153857    -0.09400
C693        C  0.94353330  0.25278486  0.95814174    -0.17100
C694        C  0.94220544  0.24199540  0.93944038     0.25100
C695        C  0.92377999  0.23210042  0.93443899    -0.18700
C696        C  0.90685417  0.23308273  0.94778647    -0.07700
C697        C  0.95949694  0.24105892  0.92520819    -0.14100
C698        C  0.97319519  0.23962776  0.91252294    -0.13800
C699        C  0.98872916  0.23722269  0.89652649     0.25000
C700        C  0.98745937  0.22082387  0.88260026    -0.19200
C701        C  0.00178423  0.21885998  0.86652371    -0.07700
C702        C  0.01774431  0.23324913  0.86404996    -0.03800
C703        C  0.01923548  0.24943713  0.87834780    -0.09100
C704        C  0.00481689  0.25142681  0.89441217    -0.16700
H705        H  0.92784315  0.26244966  0.98575488     0.11400
H706        H  0.95765699  0.26051247  0.96230023     0.10700
H707        H  0.92242815  0.22369132  0.92009647     0.10600
H708        H  0.89278396  0.22543455  0.94332674     0.11200
H709        H  0.97517351  0.20968277  0.88396841     0.11200
H710        H  0.00016011  0.20622914  0.85580397     0.11200
H711        H  0.03126210  0.26082492  0.87683143     0.11300
H712        H  0.00606198  0.26421329  0.90500382     0.10200
C713        C  0.76254043  0.32046040  0.59686667    -0.03600
C714        C  0.75130153  0.30704257  0.60951985    -0.09400
C715        C  0.73490610  0.31439583  0.62119959    -0.17100
C716        C  0.72958865  0.33517126  0.62035181     0.25100
C717        C  0.74062045  0.34864469  0.60774039    -0.18700
C718        C  0.75703879  0.34129869  0.59598777    -0.07700
C719        C  0.71309735  0.34236284  0.63301733    -0.14100
C720        C  0.69954985  0.34462821  0.64537820    -0.13800
C721        C  0.68472201  0.34201571  0.66144645     0.25000
C722        C  0.68099047  0.32214469  0.66858686    -0.19200
C723        C  0.66751598  0.31893788  0.68489857    -0.07700
C724        C  0.65751473  0.33560027  0.69425008    -0.03800
C725        C  0.66112576  0.35557318  0.68692269    -0.09100
C726        C  0.67479898  0.35878158  0.67054443    -0.16700
H727        H  0.75515294  0.29090883  0.61035486     0.11400
H728        H  0.72641066  0.30388041  0.63099474     0.10700
H729        H  0.73660070  0.36474889  0.60705977     0.10600
H730        H  0.76543457  0.35190488  0.58623853     0.11200
H731        H  0.68871164  0.30910825  0.66167635     0.11200
H732        H  0.66498626  0.30338425  0.69022669     0.11200
H733        H  0.65360789  0.36862354  0.69398156     0.11300
H734        H  0.67776211  0.37423186  0.66514155     0.10200
C735        C  0.66314449  0.30565585  0.78443637    -0.03600
C736        C  0.65939885  0.28937144  0.79812594    -0.09400
C737        C  0.67436469  0.28355021  0.81229858    -0.17100
C738        C  0.69318527  0.29385029  0.81269963     0.25100
C739        C  0.69712786  0.30987543  0.79890479    -0.18700
C740        C  0.68215657  0.31580031  0.78483001    -0.07700
C741        C  0.70787447  0.28939009  0.82835750    -0.14100
C742        C  0.72032704  0.28895062  0.84191995    -0.13800
C743        C  0.73490935  0.29249564  0.85792719     0.25000
C744        C  0.74127008  0.27655581  0.87082773    -0.19200
C745        C  0.75520666  0.28056956  0.88665549    -0.07700
C746        C  0.76275390  0.30055579  0.88966549    -0.03800
C747        C  0.75623393  0.31643466  0.87661166    -0.09100
C748        C  0.74238963  0.31238914  0.86081818    -0.16700
H749        H  0.64481008  0.28137954  0.79808893     0.11400
H750        H  0.67114566  0.27130581  0.82313605     0.10700
H751        H  0.71162305  0.31805086  0.79931438     0.10600
H752        H  0.68539857  0.32833973  0.77435202     0.11200
H753        H  0.73545630  0.26112965  0.86868543     0.11200
H754        H  0.76007975  0.26808274  0.89651386     0.11200
H755        H  0.76189070  0.33193931  0.87855299     0.11300
H756        H  0.73745278  0.32481255  0.85087780     0.10200
C757        C  0.70212106  0.37588148  0.96237208    -0.03600
C758        C  0.70183169  0.38998739  0.94592429    -0.09400
C759        C  0.68572073  0.38998027  0.93160682    -0.17100
C760        C  0.66959389  0.37581260  0.93333057     0.25100
C761        C  0.66979401  0.36164619  0.94964301    -0.18700
C762        C  0.68589128  0.36169040  0.96406096    -0.07700
C763        C  0.65303262  0.37582180  0.91828394    -0.14100
C764        C  0.63959874  0.37620542  0.90530344    -0.13800
C765        C  0.62410568  0.37700433  0.88916556     0.25000
C766        C  0.60791100  0.36277658  0.88867797    -0.19200
C767        C  0.59345205  0.36317792  0.87260477    -0.07700
C768        C  0.59492555  0.37784168  0.85671256    -0.03800
C769        C  0.61104824  0.39223794  0.85749439    -0.09100
C770        C  0.62546016  0.39181662  0.87354068    -0.16700
H771        H  0.71414045  0.40102092  0.94405930     0.11400
H772        H  0.68590630  0.40100514  0.91910752     0.10700
H773        H  0.65753289  0.35050725  0.95119487     0.10600
H774        H  0.68576629  0.35047449  0.97637639     0.11200
H775        H  0.60658274  0.35120347  0.90059608     0.11200
H776        H  0.58129257  0.35183797  0.87245693     0.11200
H777        H  0.61270028  0.40370057  0.84551632     0.11300
H778        H  0.63783209  0.40293975  0.87361283     0.10200
C779        C  0.69046473  0.25340493  0.52819993    -0.03600
C780        C  0.68788796  0.23945600  0.54458787    -0.09400
C781        C  0.67080465  0.24066780  0.55771513    -0.17100
C782        C  0.65588717  0.25585764  0.55483301     0.25100
C783        C  0.65813737  0.26968801  0.53835849    -0.18700
C784        C  0.67527851  0.26846115  0.52511852    -0.07700
C785        C  0.63886460  0.25744660  0.56934193    -0.14100
C786        C  0.62582800  0.25788499  0.58278792    -0.13800
C787        C  0.61179490  0.25752019  0.60029791     0.25000
C788        C  0.59420521  0.26996371  0.60086019    -0.19200
C789        C  0.58137737  0.27012095  0.61837410    -0.07700
C790        C  0.58598131  0.25787041  0.63563534    -0.03800
C791        C  0.60345882  0.24518714  0.63475733    -0.09100
C792        C  0.61618475  0.24501097  0.61728961    -0.16700
H793        H  0.69925872  0.22769360  0.54745569     0.11400
H794        H  0.66939080  0.22987585  0.57034619     0.10700
H795        H  0.64680238  0.28158190  0.53590027     0.10600
H796        H  0.67682939  0.27947852  0.51271608     0.11200
H797        H  0.59055484  0.27976482  0.58789487     0.11200
H798        H  0.56810587  0.28011010  0.61857431     0.11200
H799        H  0.60750174  0.23557739  0.64774421     0.11300
H800        H  0.62967917  0.23530143  0.61718005     0.10200
C801        C  0.52009885  0.20805434  0.69684238    -0.03600
C802        C  0.52691205  0.19171706  0.70925403    -0.09400
C803        C  0.51422482  0.17463536  0.71296065    -0.17100
C804        C  0.49449035  0.17359718  0.70438396     0.25100
C805        C  0.48768810  0.18976454  0.69189114    -0.18700
C806        C  0.50035385  0.20679946  0.68813003    -0.07700
C807        C  0.48108552  0.15619353  0.70855927    -0.14100
C808        C  0.46928700  0.14210327  0.71186866    -0.13800
C809        C  0.45428403  0.12593947  0.71556249     0.25000
C810        C  0.43818422  0.12285465  0.70160968    -0.19200
C811        C  0.42284603  0.10828553  0.70572101    -0.07700
C812        C  0.42332438  0.09640614  0.72385607    -0.03800
C813        C  0.43988319  0.09905971  0.73748855    -0.09100
C814        C  0.45518614  0.11377131  0.73340803    -0.16700
H815        H  0.54196464  0.19224146  0.71627739     0.11400
H816        H  0.51975619  0.16231749  0.72267537     0.10700
H817        H  0.47249080  0.18929079  0.68516017     0.10600
H818        H  0.49455125  0.21915353  0.67863126     0.11200
H819        H  0.43723063  0.13203281  0.68771831     0.11200
H820        H  0.41037174  0.10657924  0.69485004     0.11200
H821        H  0.44067424  0.09020669  0.75159045     0.11300
H822        H  0.46751061  0.11591406  0.74437687     0.10200
C823        C  0.16798935  0.25762593  0.73242518    -0.03600
C824        C  0.16547903  0.23641448  0.72948922    -0.09400
C825        C  0.18253830  0.22385657  0.72621343    -0.17100
C826        C  0.20228483  0.23232731  0.72576705     0.25100
C827        C  0.20480612  0.25361432  0.72735658    -0.18700
C828        C  0.18771404  0.26623830  0.73057466    -0.07700
C829        C  0.21978796  0.21890671  0.72682471    -0.14100
C830        C  0.23310770  0.20675865  0.73096825    -0.13800
C831        C  0.24693444  0.19171260  0.73935902     0.25000
C832        C  0.26697175  0.18950142  0.73176667    -0.19200
C833        C  0.28042224  0.17547148  0.74099824    -0.07700
C834        C  0.27393047  0.16361779  0.75794592    -0.03800
C835        C  0.25370408  0.16575993  0.76520857    -0.09100
C836        C  0.24033457  0.17969097  0.75597701    -0.16700
H837        H  0.15045763  0.22938991  0.73077577     0.11400
H838        H  0.18040905  0.20739511  0.72514963     0.10700
H839        H  0.22002527  0.26032584  0.72719421     0.10600
H840        H  0.19006232  0.28254799  0.73277192     0.11200
H841        H  0.27227214  0.19879544  0.71896515     0.11200
H842        H  0.29596896  0.17419319  0.73517807     0.11200
H843        H  0.24829068  0.15689115  0.77826153     0.11300
H844        H  0.22489464  0.18131953  0.76203190     0.10200
C845        C  0.35263310  0.17320539  0.81128904    -0.03600
C846        C  0.37359633  0.16923332  0.81439161    -0.09400
C847        C  0.38759621  0.18541341  0.81575480    -0.17100
C848        C  0.38078753  0.20568958  0.81404848     0.25100
C849        C  0.35980273  0.20980056  0.81200760    -0.18700
C850        C  0.34575386  0.19363056  0.81074409    -0.07700
C851        C  0.39549804  0.22194241  0.81166715    -0.14100
C852        C  0.40785634  0.23482246  0.80682007    -0.13800
C853        C  0.42207857  0.24922739  0.79800863     0.25000
C854        C  0.41823695  0.25709171  0.77833598    -0.19200
C855        C  0.43229419  0.27035378  0.76904584    -0.07700
C856        C  0.45040008  0.27592620  0.77934406    -0.03800
C857        C  0.45416180  0.26806231  0.79916091    -0.09100
C858        C  0.44005516  0.25470964  0.80843808    -0.16700
H859        H  0.37928890  0.15363131  0.81478429     0.11400
H860        H  0.40382830  0.18207804  0.81714228     0.10700
H861        H  0.35441102  0.22544321  0.81044001     0.10600
H862        H  0.32970073  0.19709336  0.80818997     0.11200
H863        H  0.40442244  0.25283616  0.77009503     0.11200
H864        H  0.42898189  0.27625338  0.75380531     0.11200
H865        H  0.46799198  0.27217890  0.80742232     0.11300
H866        H  0.44321582  0.24857992  0.82362332     0.10200
C867        C  0.20590169  0.08829733  0.84230923    -0.03600
C868        C  0.19148264  0.07984535  0.82858221    -0.09400
C869        C  0.17332953  0.09041802  0.82384357    -0.17100
C870        C  0.16932129  0.10962041  0.83271425     0.25100
C871        C  0.18350234  0.11798534  0.84660763    -0.18700
C872        C  0.20162201  0.10743458  0.85138153    -0.07700
C873        C  0.15096460  0.12105533  0.82743881    -0.14100
C874        C  0.13637015  0.13210877  0.82412652    -0.13800
C875        C  0.12026522  0.14735908  0.82224123     0.25000
C876        C  0.11834025  0.16232669  0.83757693    -0.19200
C877        C  0.10396041  0.17810986  0.83563874    -0.07700
C878        C  0.09105556  0.17926353  0.81833042    -0.03800
C879        C  0.09255974  0.16385015  0.80317075    -0.09100
C880        C  0.10716003  0.14803031  0.80507813    -0.16700
H881        H  0.19435505  0.06516971  0.82130620     0.11400
H882        H  0.16254415  0.08371180  0.81309003     0.10700
H883        H  0.18065485  0.13280982  0.85360736     0.10600
H884        H  0.21243227  0.11440924  0.86193051     0.11200
H885        H  0.12830084  0.16205428  0.85092673     0.11200
H886        H  0.10317795  0.18966422  0.84761162     0.11200
H887        H  0.08290209  0.16437077  0.78962038     0.11300
H888        H  0.10846123  0.13658765  0.79303486     0.10200
C889        C  0.15047190  0.33502555  0.79156886    -0.03600
C890        C  0.14772478  0.35595014  0.78719320    -0.09400
C891        C  0.15906944  0.37076906  0.79769364    -0.17100
C892        C  0.17332232  0.36489605  0.81264665     0.25100
C893        C  0.17582996  0.34411320  0.81749089    -0.18700
C894        C  0.16435783  0.32922179  0.80706345    -0.07700
C895        C  0.18715091  0.38006187  0.82065102    -0.14100
C896        C  0.19977709  0.39331387  0.82310467    -0.13800
C897        C  0.21561942  0.40845484  0.82079467     0.25000
C898        C  0.21290708  0.42854998  0.82797448    -0.19200
C899        C  0.22744803  0.44368139  0.82316239    -0.07700
C900        C  0.24458281  0.43879712  0.81089688    -0.03800
C901        C  0.24728493  0.41853018  0.80407766    -0.09100
C902        C  0.23293316  0.40347136  0.80905384    -0.16700
H903        H  0.13712783  0.36084347  0.77534120     0.11400
H904        H  0.15725749  0.38679093  0.79360769     0.10700
H905        H  0.18708733  0.33939300  0.82879371     0.10600
H906        H  0.16679128  0.31318104  0.81066085     0.11200
H907        H  0.19935427  0.43261756  0.83678391     0.11200
H908        H  0.22500314  0.45924770  0.82846002     0.11200
H909        H  0.26037587  0.41436512  0.79463161     0.11300
H910        H  0.23502239  0.38804090  0.80318564     0.10200
C911        C  0.44482119  0.35961522  0.73926590    -0.03600
C912        C  0.42953625  0.35564036  0.72454736    -0.09400
C913        C  0.41235178  0.36844776  0.72320841    -0.17100
C914        C  0.41056003  0.38537345  0.73638212     0.25100
C915        C  0.42610185  0.38976270  0.75052470    -0.18700
C916        C  0.44310266  0.37693514  0.75201233    -0.07700
C917        C  0.39215820  0.39737094  0.73698063    -0.14100
C918        C  0.37734177  0.40762237  0.74093929    -0.13800
C919        C  0.36096616  0.41977667  0.74920693     0.25000
C920        C  0.34771598  0.43055708  0.73620567    -0.19200
C921        C  0.33238659  0.44299373  0.74465712    -0.07700
C922        C  0.33025567  0.44469624  0.76616784    -0.03800
C923        C  0.34343146  0.43356072  0.77907393    -0.09100
C924        C  0.35873755  0.42120981  0.77061641    -0.16700
H925        H  0.43046187  0.34222407  0.71474301     0.11400
H926        H  0.40025015  0.36483776  0.71236885     0.10700
H927        H  0.42475700  0.40274407  0.76088104     0.10600
H928        H  0.45467922  0.38028355  0.76349491     0.11200
H929        H  0.34936435  0.42951918  0.71961271     0.11200
H930        H  0.32232900  0.45137545  0.73440916     0.11200
H931        H  0.34207843  0.43459561  0.79569013     0.11300
H932        H  0.36897858  0.41292423  0.78077984     0.10200
C933        C  0.08275806  0.39825281  0.70075768    -0.03600
C934        C  0.07462940  0.41434401  0.71273174    -0.09400
C935        C  0.08618893  0.43219572  0.71634589    -0.17100
C936        C  0.10604217  0.43415292  0.70811043     0.25100
C937        C  0.11404582  0.41829886  0.69594206    -0.18700
C938        C  0.10252354  0.40054360  0.69226003    -0.07700
C939        C  0.11867301  0.45193626  0.71253571    -0.14100
C940        C  0.13080287  0.46569231  0.71569168    -0.13800
C941        C  0.14691041  0.48077502  0.71865887     0.25000
C942        C  0.16531753  0.47895913  0.70759859    -0.19200
C943        C  0.18127076  0.49304812  0.71061128    -0.07700
C944        C  0.17914736  0.50926835  0.72478740    -0.03800
C945        C  0.16061430  0.51105525  0.73586178    -0.09100
C946        C  0.14460129  0.49691422  0.73279317    -0.16700
H947        H  0.05947907  0.41300579  0.71952263     0.11400
H948        H  0.07977067  0.44430375  0.72580782     0.10700
H949        H  0.12936963  0.41953119  0.68950940     0.10600
H950        H  0.10928195  0.38840674  0.68308572     0.11200
H951        H  0.16740929  0.46653229  0.69669696     0.11200
H952        H  0.19536613  0.49113340  0.70192842     0.11200
H953        H  0.15854727  0.52330079  0.74695321     0.11300
H954        H  0.13049836  0.49849265  0.74154096     0.10200
C955        C  0.51509260  0.42391478  0.81309338    -0.03600
C956        C  0.50022074  0.42253409  0.82883675    -0.09400
C957        C  0.48456205  0.43716710  0.83052574    -0.17100
C958        C  0.48335472  0.45344899  0.81648209     0.25100
C959        C  0.49811835  0.45498251  0.80073926    -0.18700
C960        C  0.51390424  0.44035672  0.79907862    -0.07700
C961        C  0.46695783  0.46843030  0.81844749    -0.14100
C962        C  0.45281740  0.48021979  0.82132330    -0.13800
C963        C  0.43536243  0.49322186  0.82621767     0.25000
C964        C  0.43165404  0.51145254  0.81531535    -0.19200
C965        C  0.41447546  0.52365059  0.82008864    -0.07700
C966        C  0.40076091  0.51778049  0.83585592    -0.03800
C967        C  0.40476334  0.49959740  0.84682758    -0.09100
C968        C  0.42186607  0.48746811  0.84204925    -0.16700
H969        H  0.50060771  0.41002834  0.83982311     0.11400
H970        H  0.47330859  0.43571119  0.84277757     0.10700
H971        H  0.49740069  0.46743634  0.78970786     0.10600
H972        H  0.52497746  0.44172843  0.78666901     0.11200
H973        H  0.44192611  0.51615414  0.80302554     0.11200
H974        H  0.41175951  0.53748431  0.81126614     0.11200
H975        H  0.39448316  0.49455818  0.85896790     0.11300
H976        H  0.42447095  0.47345896  0.85064223     0.10200
C977        C  0.34457836  0.95716975  0.85455882    -0.03600
C978        C  0.32917174  0.94457034  0.86294691    -0.09400
C979        C  0.33389493  0.93004973  0.87787928    -0.17100
C980        C  0.35405620  0.92781717  0.88477036     0.25100
C981        C  0.36957072  0.94057932  0.87692146    -0.18700
C982        C  0.36482173  0.95529187  0.86184485    -0.07700
C983        C  0.35814965  0.91160893  0.89919254    -0.14100
C984        C  0.35645272  0.89668965  0.91002900    -0.13800
C985        C  0.34931590  0.87879951  0.92087617     0.25000
C986        C  0.33300620  0.86751674  0.91257084    -0.19200
C987        C  0.32452608  0.85111950  0.92352287    -0.07700
C988        C  0.33232011  0.84574850  0.94293906    -0.03800
C989        C  0.34897499  0.85687633  0.95104451    -0.09100
C990        C  0.35737181  0.87340646  0.94009703    -0.16700
H991        H  0.31344520  0.94565309  0.85769276     0.11400
H992        H  0.32178716  0.92023560  0.88381454     0.10700
H993        H  0.38525766  0.93893083  0.88214696     0.10600
H994        H  0.37696128  0.96482826  0.85558855     0.11200
H995        H  0.32653323  0.87169012  0.89777454     0.11200
H996        H  0.31169213  0.84284492  0.91694910     0.11200
H997        H  0.35516101  0.85312364  0.96606000     0.11300
H998        H  0.36983471  0.88216716  0.94676379     0.10200
C999        C  0.27934701  0.75898567  0.93766905    -0.03600
C1000       C  0.25814341  0.75484990  0.93718620    -0.09400
C1001       C  0.25040305  0.73931439  0.92444141    -0.17100
C1002       C  0.26378805  0.72782918  0.91206074     0.25100
C1003       C  0.28485601  0.73204443  0.91235607    -0.18700
C1004       C  0.29259680  0.74749183  0.92505556    -0.07700
C1005       C  0.25626378  0.71178220  0.89880258    -0.14100
C1006       C  0.25256850  0.69829150  0.88662541    -0.13800
C1007       C  0.25162504  0.68266209  0.87095310     0.25000
C1008       C  0.25396090  0.66196518  0.87624434    -0.19200
C1009       C  0.25688096  0.64721706  0.86082771    -0.07700
C1010       C  0.25770579  0.65307290  0.83996475    -0.03800
C1011       C  0.25412990  0.67368260  0.83473712    -0.09100
C1012       C  0.25112343  0.68837918  0.85015523    -0.16700
H1013       H  0.24760587  0.76345647  0.94680455     0.11400
H1014       H  0.23406050  0.73622582  0.92429941     0.10700
H1015       H  0.29535201  0.72330546  0.90279223     0.10600
H1016       H  0.30898104  0.75032801  0.92511966     0.11200
H1017       H  0.25452255  0.65736617  0.89228497     0.11200
H1018       H  0.25960553  0.63144265  0.86529198     0.11200
H1019       H  0.25464093  0.67860569  0.81879708     0.11300
H1020       H  0.24944673  0.70435892  0.84587585     0.10200
C1021       C  0.25735417  0.02575882  0.90479752    -0.03600
C1022       C  0.27004712  0.02888671  0.92203983    -0.09400
C1023       C  0.27028260  0.01460819  0.93832652    -0.17100
C1024       C  0.25781005  0.99702435  0.93765344     0.25100
C1025       C  0.24491460  0.99404888  0.92066708    -0.18700
C1026       C  0.24468404  0.00822791  0.90442959    -0.07700
C1027       C  0.25824127  0.98183538  0.95409222    -0.14100
C1028       C  0.25770902  0.96837823  0.96705568    -0.13800
C1029       C  0.25593108  0.95144089  0.98157490     0.25000
C1030       C  0.23993548  0.93721467  0.97944404    -0.19200
C1031       C  0.23837714  0.92038612  0.99281611    -0.07700
C1032       C  0.25276947  0.91741798  0.00868992    -0.03800
C1033       C  0.26861329  0.93194307  0.01103799    -0.09100
C1034       C  0.27020101  0.94879336  0.99754788    -0.16700
H1035       H  0.28010516  0.04210461  0.92272073     0.11400
H1036       H  0.28036623  0.01717380  0.95132406     0.10700
H1037       H  0.23516300  0.98059591  0.91984120     0.10600
H1038       H  0.23479274  0.00525644  0.89137204     0.11200
H1039       H  0.22875513  0.93898348  0.96723950     0.11200
H1040       H  0.22600005  0.90951905  0.99054684     0.11200
H1041       H  0.27999420  0.93005530  0.02302194     0.11300
H1042       H  0.28268507  0.95961587  0.99944449     0.10200
C1043       C  0.34874932  0.58080585  0.90074649    -0.03600
C1044       C  0.35910156  0.59978035  0.90063473    -0.09400
C1045       C  0.35814354  0.61292516  0.91768298    -0.17100
C1046       C  0.34686848  0.60740589  0.93524673     0.25100
C1047       C  0.33679324  0.58835358  0.93568929    -0.18700
C1048       C  0.33770777  0.57514115  0.91855642    -0.07700
C1049       C  0.34558229  0.62156547  0.95249156    -0.14100
C1050       C  0.34545370  0.63448156  0.96596844    -0.13800
C1051       C  0.34667140  0.65101405  0.98092694     0.25000
C1052       C  0.33290587  0.65224488  0.99758772    -0.19200
C1053       C  0.33412681  0.66861923  0.01167233    -0.07700
C1054       C  0.34912380  0.68400780  0.00923936    -0.03800
C1055       C  0.36294400  0.68250635  0.99257970    -0.09100
C1056       C  0.36171707  0.66620143  0.97859497    -0.16700
H1057       H  0.36765985  0.60468509  0.88716548     0.11400
H1058       H  0.36603640  0.62755507  0.91705326     0.10700
H1059       H  0.32802232  0.58381862  0.94915605     0.10600
H1060       H  0.32949671  0.56069744  0.91909453     0.11200
H1061       H  0.32114143  0.64065303  0.99960749     0.11200
H1062       H  0.32318927  0.66940507  0.02425058     0.11200
H1063       H  0.37462355  0.69410983  0.99018377     0.11300
H1064       H  0.37245664  0.66553648  0.96582393     0.10200
C1065       C  0.15543216  0.81117799  0.25586393    -0.03600
C1066       C  0.17101581  0.82400659  0.24821906    -0.09400
C1067       C  0.18215736  0.81822939  0.23074734    -0.17100
C1068       C  0.17767625  0.79970493  0.22077378     0.25100
C1069       C  0.16224094  0.78686632  0.22832422    -0.18700
C1070       C  0.15119781  0.79253692  0.24584458    -0.07700
C1071       C  0.18909589  0.79394198  0.20285572    -0.14100
C1072       C  0.20014391  0.79112494  0.18831686    -0.13800
C1073       C  0.21539064  0.79157212  0.17248186     0.25000
C1074       C  0.22353599  0.77345527  0.16424005    -0.19200
C1075       C  0.24012605  0.77445632  0.15052584    -0.07700
C1076       C  0.24866097  0.79357598  0.14531868    -0.03800
C1077       C  0.23995942  0.81161267  0.15325828    -0.09100
C1078       C  0.22339603  0.81059481  0.16671895    -0.16700
H1079       H  0.17450982  0.83845879  0.25568002     0.11400
H1080       H  0.19416754  0.82821864  0.22495641     0.10700
H1081       H  0.15871263  0.77252527  0.22065663     0.10600
H1082       H  0.13913329  0.78248503  0.25136846     0.11200
H1083       H  0.21745152  0.75865827  0.16880450     0.11200
H1084       H  0.24664352  0.76037903  0.14452659     0.11200
H1085       H  0.24616690  0.82653556  0.14932176     0.11300
H1086       H  0.21721125  0.82466009  0.17313475     0.10200
C1087       C  0.09198021  0.87206389  0.18603196    -0.03600
C1088       C  0.08991977  0.85645774  0.17115954    -0.09400
C1089       C  0.10393178  0.85490052  0.15467747    -0.17100
C1090       C  0.12019721  0.86893977  0.15275788     0.25100
C1091       C  0.12227020  0.88450172  0.16752205    -0.18700
C1092       C  0.10835193  0.88604153  0.18398721    -0.07700
C1093       C  0.13492706  0.86747075  0.13589403    -0.14100
C1094       C  0.14802431  0.86713510  0.12250183    -0.13800
C1095       C  0.16473033  0.86759936  0.10753825     0.25000
C1096       C  0.18265738  0.87864940  0.11193914    -0.19200
C1097       C  0.19917074  0.87877218  0.09801420    -0.07700
C1098       C  0.19816448  0.86778269  0.07934915    -0.03800
C1099       C  0.18000535  0.85694674  0.07482655    -0.09100
C1100       C  0.16342117  0.85688252  0.08879932    -0.16700
H1101       H  0.07758233  0.84536839  0.17235897     0.11400
H1102       H  0.10210063  0.84271547  0.14347565     0.10700
H1103       H  0.13474059  0.89545921  0.16635803     0.10600
H1104       H  0.11045769  0.89818119  0.19518297     0.11200
H1105       H  0.18398352  0.88703254  0.12629960     0.11200
H1106       H  0.21290854  0.88721726  0.10205122     0.11200
H1107       H  0.17873313  0.84829921  0.06063289     0.11300
H1108       H  0.14968788  0.84827387  0.08508617     0.10200
C1109       C  0.81926185  0.25413218  0.39022994    -0.03600
C1110       C  0.83963506  0.24885940  0.38535861    -0.09400
C1111       C  0.84369405  0.23259549  0.37190933    -0.17100
C1112       C  0.82741891  0.22147087  0.36343325     0.25100
C1113       C  0.80713940  0.22643992  0.36849125    -0.18700
C1114       C  0.80306049  0.24269488  0.38179945    -0.07700
C1115       C  0.83097353  0.20586876  0.34836371    -0.14100
C1116       C  0.82979956  0.19386568  0.33440261    -0.13800
C1117       C  0.82334942  0.18166149  0.31731222     0.25000
C1118       C  0.83697822  0.16858167  0.30706604    -0.19200
C1119       C  0.83007005  0.15691191  0.29039283    -0.07700
C1120       C  0.80952552  0.15833370  0.28395804    -0.03800
C1121       C  0.79605954  0.17166010  0.29425115    -0.09100
C1122       C  0.80295943  0.18323911  0.31084605    -0.16700
H1123       H  0.85235684  0.25751506  0.39164397     0.11400
H1124       H  0.85942553  0.22893295  0.36787827     0.10700
H1125       H  0.79445509  0.21797758  0.36182670     0.10600
H1126       H  0.78723320  0.24643355  0.38533228     0.11200
H1127       H  0.85279931  0.16733689  0.31200325     0.11200
H1128       H  0.84066930  0.14660609  0.28273612     0.11200
H1129       H  0.78013569  0.17292787  0.28966700     0.11300
H1130       H  0.79234163  0.19338796  0.31872635     0.10200
C1131       C  0.78064186  0.27089589  0.10786810    -0.03600
C1132       C  0.75957542  0.26617207  0.10747320    -0.09400
C1133       C  0.75181873  0.25021045  0.11960454    -0.17100
C1134       C  0.76507621  0.23896933  0.13219621     0.25100
C1135       C  0.78599509  0.24375693  0.13281210    -0.18700
C1136       C  0.79375762  0.25964220  0.12073237    -0.07700
C1137       C  0.75762694  0.22226916  0.14442514    -0.14100
C1138       C  0.75454191  0.20778810  0.15544235    -0.13800
C1139       C  0.75522424  0.19057819  0.16909509     0.25000
C1140       C  0.76430414  0.17234813  0.16230086    -0.19200
C1141       C  0.76883014  0.15687609  0.17639127    -0.07700
C1142       C  0.76405904  0.15945327  0.19732266    -0.03800
C1143       C  0.75393165  0.17729649  0.20390973    -0.09100
C1144       C  0.74971856  0.19293646  0.18983133    -0.16700
H1145       H  0.74919329  0.27458860  0.09757730     0.11400
H1146       H  0.73560675  0.24654005  0.11904220     0.10700
H1147       H  0.79635644  0.23507326  0.14252360     0.10600
H1148       H  0.81004689  0.26293227  0.12125166     0.11200
H1149       H  0.76883133  0.17052403  0.14631674     0.11200
H1150       H  0.77662965  0.14318036  0.17107404     0.11200
H1151       H  0.75036216  0.17960880  0.22006441     0.11300
H1152       H  0.74301590  0.20716486  0.19525368     0.10200
C1153       C  0.84620150  0.95685876  0.27910656    -0.03600
C1154       C  0.86255242  0.95013647  0.26663628    -0.09400
C1155       C  0.87867237  0.93881967  0.27515222    -0.17100
C1156       C  0.87862983  0.93402564  0.29620289     0.25100
C1157       C  0.86257946  0.94096574  0.30878901    -0.18700
C1158       C  0.84649588  0.95239713  0.30031638    -0.07700
C1159       C  0.89422575  0.92070372  0.30444323    -0.14100
C1160       C  0.90655753  0.90796630  0.30974969    -0.13800
C1161       C  0.92024640  0.89100339  0.31332165     0.25000
C1162       C  0.94079663  0.89434013  0.31869976    -0.19200
C1163       C  0.95465126  0.87791434  0.31884268    -0.07700
C1164       C  0.94806690  0.85807458  0.31340348    -0.03800
C1165       C  0.92718184  0.85469524  0.30929696    -0.09100
C1166       C  0.91338237  0.87106524  0.30925433    -0.16700
H1167       H  0.86277403  0.95345287  0.25027669     0.11400
H1168       H  0.89095295  0.93343981  0.26523010     0.10700
H1169       H  0.86229559  0.93721952  0.32505863     0.10600
H1170       H  0.83409076  0.95738904  0.31027048     0.11200
H1171       H  0.94629899  0.90971442  0.32182897     0.11200
H1172       H  0.97069588  0.88094768  0.32197338     0.11200
H1173       H  0.92170581  0.83958710  0.30504279     0.11300
H1174       H  0.89752849  0.86830573  0.30504875     0.10200
C1175       C  0.01654167  0.92634113  0.22551530    -0.03600
C1176       C  0.01764679  0.94471567  0.23690768    -0.09400
C1177       C  0.00366326  0.96078236  0.23322155    -0.17100
C1178       C  0.98842534  0.95875152  0.21805731     0.25100
C1179       C  0.98760539  0.94068053  0.20641196    -0.18700
C1180       C  0.00145914  0.92467192  0.21009441    -0.07700
C1181       C  0.97300996  0.97457590  0.21481565    -0.14100
C1182       C  0.95898149  0.98641228  0.21153902    -0.13800
C1183       C  0.94115946  0.99912206  0.20714646     0.25000
C1184       C  0.92596725  0.99199244  0.19364671    -0.19200
C1185       C  0.90839653  0.00378446  0.18974724    -0.07700
C1186       C  0.90562871  0.02299113  0.19928880    -0.03800
C1187       C  0.92096057  0.03013414  0.21276982    -0.09100
C1188       C  0.93858487  0.01830813  0.21663457    -0.16700
H1189       H  0.02905440  0.94651152  0.24888354     0.11400
H1190       H  0.00454608  0.97463186  0.24240833     0.10700
H1191       H  0.97598072  0.93879378  0.19464549     0.10600
H1192       H  0.00016859  0.91080909  0.20098766     0.11200
H1193       H  0.92760885  0.97718221  0.18624160     0.11200
H1194       H  0.89683782  0.99773163  0.17942912     0.11200
H1195       H  0.91924029  0.04477282  0.22047313     0.11300
H1196       H  0.95010271  0.02405472  0.22717788     0.10200
C1197       C  0.85362428  0.08686208  0.13697385    -0.03600
C1198       C  0.84233923  0.08158436  0.11925138    -0.09400
C1199       C  0.84179044  0.09483976  0.10209319    -0.17100
C1200       C  0.85248989  0.11357294  0.10239321     0.25100
C1201       C  0.86402944  0.11866429  0.11985183    -0.18700
C1202       C  0.86460617  0.10549380  0.13691905    -0.07700
C1203       C  0.85133102  0.12802939  0.08531077    -0.14100
C1204       C  0.85114156  0.14150886  0.07234826    -0.13800
C1205       C  0.85202932  0.15904524  0.05845852     0.25000
C1206       C  0.86854575  0.17277018  0.05974409    -0.19200
C1207       C  0.86908333  0.19047142  0.04748830    -0.07700
C1208       C  0.85315570  0.19481649  0.03353670    -0.03800
C1209       C  0.83680009  0.18076812  0.03190656    -0.09100
C1210       C  0.83620399  0.16306274  0.04434705    -0.16700
H1211       H  0.83365335  0.06741927  0.11880522     0.11400
H1212       H  0.83277126  0.09061564  0.08874563     0.10700
H1213       H  0.87238580  0.13303667  0.12042060     0.10600
H1214       H  0.87339317  0.11012327  0.15028362     0.11200
H1215       H  0.88090319  0.16997707  0.07052818     0.11200
H1216       H  0.88193515  0.20090024  0.04908966     0.11200
H1217       H  0.82427529  0.18370076  0.02137213     0.11300
H1218       H  0.82326395  0.15268257  0.04316379     0.10200
C1219       C  0.74221987  0.19827308  0.45953865    -0.03600
C1220       C  0.75654215  0.18232618  0.46214946    -0.09400
C1221       C  0.75690482  0.16565111  0.44843253    -0.17100
C1222       C  0.74288534  0.16471167  0.43206968     0.25100
C1223       C  0.72843864  0.18038997  0.42966463    -0.18700
C1224       C  0.72811960  0.19702974  0.44322966    -0.07700
C1225       C  0.74323976  0.14802736  0.41738163    -0.14100
C1226       C  0.74223349  0.13507199  0.40406130    -0.13800
C1227       C  0.74003097  0.12052454  0.38736611     0.25000
C1228       C  0.72553808  0.12401323  0.37182486    -0.19200
C1229       C  0.72358130  0.11020304  0.35538405    -0.07700
C1230       C  0.73606686  0.09262753  0.35427637    -0.03800
C1231       C  0.75046083  0.08914725  0.37002811    -0.09100
C1232       C  0.75243774  0.10300836  0.38642905    -0.16700
H1233       H  0.76769285  0.18296836  0.47448578     0.11400
H1234       H  0.76820590  0.15364209  0.45046310     0.10700
H1235       H  0.71751523  0.17987612  0.41710714     0.10600
H1236       H  0.71694453  0.20907416  0.44079502     0.11200
H1237       H  0.71584104  0.13750402  0.37233054     0.11200
H1238       H  0.71241742  0.11335899  0.34346039     0.11200
H1239       H  0.76037945  0.07583261  0.36953714     0.11300
H1240       H  0.76373475  0.10012056  0.39830293     0.10200
C1241       C  0.79483777  0.34705064  0.38281698    -0.03600
C1242       C  0.77800443  0.36048771  0.38403668    -0.09400
C1243       C  0.77586217  0.37635112  0.36965223    -0.17100
C1244       C  0.79046907  0.37877066  0.35396353     0.25100
C1245       C  0.80693651  0.36512761  0.35239075    -0.18700
C1246       C  0.80911713  0.34936165  0.36670468    -0.07700
C1247       C  0.78951963  0.39573946  0.33995478    -0.14100
C1248       C  0.79175182  0.40942927  0.32773805    -0.13800
C1249       C  0.79759739  0.42463477  0.31288946     0.25000
C1250       C  0.78380932  0.43989787  0.30679066    -0.19200
C1251       C  0.78987979  0.45459544  0.29230993    -0.07700
C1252       C  0.80977267  0.45406982  0.28386265    -0.03800
C1253       C  0.82348903  0.43869353  0.29009940    -0.09100
C1254       C  0.81741152  0.42406917  0.30454558    -0.16700
H1255       H  0.76681815  0.35901249  0.39632930     0.11400
H1256       H  0.76309306  0.38691447  0.37099300     0.10700
H1257       H  0.81833920  0.36693058  0.34032075     0.10600
H1258       H  0.82221403  0.33921088  0.36537883     0.11200
H1259       H  0.76846066  0.44045437  0.31323439     0.11200
H1260       H  0.77908785  0.46640209  0.28780963     0.11200
H1261       H  0.83893528  0.43804283  0.28391491     0.11300
H1262       H  0.82819532  0.41231479  0.30924920     0.10200
C1263       C  0.85337375  0.46344601  0.19742068    -0.03600
C1264       C  0.87020628  0.45036056  0.20076057    -0.09400
C1265       C  0.87478557  0.43480583  0.18653696    -0.17100
C1266       C  0.86272892  0.43248284  0.16882643     0.25100
C1267       C  0.84683856  0.44632661  0.16487029    -0.18700
C1268       C  0.84217675  0.46168779  0.17904828    -0.07700
C1269       C  0.86441090  0.41462692  0.15592558    -0.14100
C1270       C  0.86109312  0.40003262  0.14502556    -0.13800
C1271       C  0.85234970  0.38405217  0.13251846     0.25000
C1272       C  0.86371422  0.37461031  0.11682617    -0.19200
C1273       C  0.85429722  0.36020229  0.10390840    -0.07700
C1274       C  0.83343329  0.35516004  0.10657285    -0.03800
C1275       C  0.82226927  0.36451163  0.12254658    -0.09100
C1276       C  0.83167514  0.37887084  0.13539123    -0.16700
H1277       H  0.87902639  0.45139645  0.21484745     0.11400
H1278       H  0.88703618  0.42407045  0.18981714     0.10700
H1279       H  0.83734148  0.44460078  0.15128937     0.10600
H1280       H  0.82918831  0.47160971  0.17605621     0.11200
H1281       H  0.87968518  0.37859445  0.11438509     0.11200
H1282       H  0.86326408  0.35315518  0.09173298     0.11200
H1283       H  0.80620767  0.36091491  0.12495645     0.11300
H1284       H  0.82269712  0.38620462  0.14740616     0.10200
C1285       C  0.95560454  0.77244654  0.26406984    -0.03600
C1286       C  0.94536403  0.77802162  0.24585713    -0.09400
C1287       C  0.93078125  0.76488701  0.23715812    -0.17100
C1288       C  0.92649130  0.74599078  0.24644536     0.25100
C1289       C  0.93739313  0.73989934  0.26398127    -0.18700
C1290       C  0.95186920  0.75305780  0.27277317    -0.07700
C1291       C  0.90985038  0.73349065  0.23914508    -0.14100
C1292       C  0.89547589  0.72246182  0.23548607    -0.13800
C1293       C  0.87872892  0.70815341  0.23454062     0.25000
C1294       C  0.86109644  0.71169980  0.24637873    -0.19200
C1295       C  0.84665226  0.69609469  0.24906359    -0.07700
C1296       C  0.84974818  0.67677343  0.23995103    -0.03800
C1297       C  0.86668353  0.67381230  0.22684177    -0.09100
C1298       C  0.88119124  0.68943389  0.22425102    -0.16700
H1299       H  0.94799332  0.79287121  0.23883771     0.11400
H1300       H  0.92240240  0.76974677  0.22360532     0.10700
H1301       H  0.93418665  0.72528113  0.27127563     0.10600
H1302       H  0.95965708  0.74834158  0.28672239     0.11200
H1303       H  0.85908054  0.72611008  0.25446722     0.11200
H1304       H  0.83362474  0.69880154  0.25911795     0.11200
H1305       H  0.86937401  0.65906055  0.21964575     0.11300
H1306       H  0.89485343  0.68652072  0.21514939     0.10200
C1307       C  0.87413249  0.52161269  0.36234784    -0.03600
C1308       C  0.89090392  0.50859104  0.36628956    -0.09400
C1309       C  0.88995455  0.49386500  0.38205749    -0.17100
C1310       C  0.87217146  0.49171109  0.39410826     0.25100
C1311       C  0.85538288  0.50464053  0.39029150    -0.18700
C1312       C  0.85637215  0.51951467  0.37460553    -0.07700
C1313       C  0.87112327  0.47596938  0.40999868    -0.14100
C1314       C  0.87080049  0.46224433  0.42268355    -0.13800
C1315       C  0.87110658  0.44497899  0.43690769     0.25000
C1316       C  0.85624832  0.44297431  0.45252029    -0.19200
C1317       C  0.85615439  0.42567815  0.46551269    -0.07700
C1318       C  0.87086063  0.41004660  0.46299558    -0.03800
C1319       C  0.88593411  0.41240877  0.44757442    -0.09100
C1320       C  0.88607102  0.42969714  0.43471566    -0.16700
H1321       H  0.90478850  0.50977004  0.35713724     0.11400
H1322       H  0.90307126  0.48401781  0.38472597     0.10700
H1323       H  0.84146732  0.50315721  0.39936082     0.10600
H1324       H  0.84313681  0.52916486  0.37185854     0.11200
H1325       H  0.84454158  0.45461563  0.45445501     0.11200
H1326       H  0.84428385  0.42427957  0.47715243     0.11200
H1327       H  0.89747956  0.40068998  0.44521158     0.11300
H1328       H  0.89768664  0.43096033  0.42279200     0.10200
C1329       C  0.02625244  0.70791785  0.35070571    -0.03600
C1330       C  0.03060113  0.69468679  0.33409689    -0.09400
C1331       C  0.01845597  0.67717942  0.33054698    -0.17100
C1332       C  0.00187045  0.67252361  0.34362485     0.25100
C1333       C  0.99776438  0.68544317  0.36041375    -0.18700
C1334       C  0.00976224  0.70298301  0.36388222    -0.07700
C1335       C  0.98846809  0.65511499  0.33950997    -0.14100
C1336       C  0.97605907  0.64149881  0.33650544    -0.13800
C1337       C  0.95978170  0.62650589  0.33333629     0.25000
C1338       C  0.94110872  0.62861232  0.34391438    -0.19200
C1339       C  0.92482625  0.61502392  0.34019906    -0.07700
C1340       C  0.92684278  0.59897723  0.32579676    -0.03800
C1341       C  0.94576101  0.59665766  0.31548672    -0.09100
C1342       C  0.96208842  0.61031572  0.31922958    -0.16700
H1343       H  0.04305685  0.69815109  0.32355949     0.11400
H1344       H  0.02182384  0.66745590  0.31742536     0.10700
H1345       H  0.98501372  0.68215951  0.37066220     0.10600
H1346       H  0.00595675  0.71285078  0.37676827     0.11200
H1347       H  0.93899996  0.64099823  0.35485653     0.11200
H1348       H  0.91051414  0.61727413  0.34842819     0.11200
H1349       H  0.94783533  0.58447743  0.30432365     0.11300
H1350       H  0.97639369  0.60842010  0.31088943     0.10200
C1351       C  0.75934250  0.53202661  0.14146104    -0.03600
C1352       C  0.77434626  0.53434143  0.12593783    -0.09400
C1353       C  0.77453479  0.52127798  0.10861775    -0.17100
C1354       C  0.75964097  0.50580579  0.10646225     0.25100
C1355       C  0.74431605  0.50393875  0.12155753    -0.18700
C1356       C  0.74420138  0.51682017  0.13887376    -0.07700
C1357       C  0.76032596  0.49118821  0.08945125    -0.14100
C1358       C  0.75990694  0.47782138  0.07635176    -0.13800
C1359       C  0.75824910  0.46081767  0.06183197     0.25000
C1360       C  0.74091652  0.44803563  0.06229149    -0.19200
C1361       C  0.73941598  0.43112587  0.04897278    -0.07700
C1362       C  0.75516466  0.42669405  0.03474716    -0.03800
C1363       C  0.77242907  0.43971810  0.03412966    -0.09100
C1364       C  0.77398990  0.45657412  0.04761280    -0.16700
H1365       H  0.78628686  0.54580282  0.12750488     0.11400
H1366       H  0.78652858  0.52299145  0.09714031     0.10700
H1367       H  0.73265306  0.49215569  0.12019301     0.10600
H1368       H  0.73241305  0.51461609  0.15047545     0.11200
H1369       H  0.72860954  0.45099189  0.07316136     0.11200
H1370       H  0.72595270  0.42140387  0.04991576     0.11200
H1371       H  0.78491553  0.43662296  0.02352121     0.11300
H1372       H  0.78756397  0.46617580  0.04706132     0.10200
C1373       C  0.65984591  0.75500255  0.29950440    -0.03600
C1374       C  0.65982482  0.74390853  0.31811397    -0.09400
C1375       C  0.67464147  0.72872447  0.32158781    -0.17100
C1376       C  0.68955425  0.72466127  0.30653154     0.25100
C1377       C  0.68964619  0.73574863  0.28808504    -0.18700
C1378       C  0.67489458  0.75077305  0.28457019    -0.07700
C1379       C  0.70465815  0.70887122  0.30925310    -0.14100
C1380       C  0.71801374  0.69619286  0.30784902    -0.13800
C1381       C  0.73399231  0.68213158  0.30209557     0.25000
C1382       C  0.73067249  0.66864102  0.28566530    -0.19200
C1383       C  0.74677429  0.65673751  0.27803600    -0.07700
C1384       C  0.76639297  0.65812611  0.28684719    -0.03800
C1385       C  0.76951961  0.67123325  0.30375651    -0.09100
C1386       C  0.75339442  0.68330413  0.31126592    -0.16700
H1387       H  0.64832383  0.74685815  0.32982014     0.11400
H1388       H  0.67440461  0.72013084  0.33589242     0.10700
H1389       H  0.70107582  0.73267196  0.27632190     0.10600
H1390       H  0.67527876  0.75908741  0.27010510     0.11200
H1391       H  0.71576534  0.66779265  0.27831323     0.11200
H1392       H  0.74398339  0.64673905  0.26500771     0.11200
H1393       H  0.78456734  0.67266099  0.31069261     0.11300
H1394       H  0.75618629  0.69391744  0.32379813     0.10200
C1395       C  0.65346776  0.84428861  0.26166014    -0.03600
C1396       C  0.65039102  0.85138031  0.24141419    -0.09400
C1397       C  0.66328897  0.86644074  0.23304751    -0.17100
C1398       C  0.67933965  0.87447892  0.24485626     0.25100
C1399       C  0.68247822  0.86743871  0.26498250    -0.18700
C1400       C  0.66963897  0.85244578  0.27334977    -0.07700
C1401       C  0.69294745  0.88980616  0.23665096    -0.14100
C1402       C  0.70612494  0.90223072  0.23290752    -0.13800
C1403       C  0.72344900  0.91586472  0.23282228     0.25000
C1404       C  0.72283851  0.93471059  0.22246797    -0.19200
C1405       C  0.73903263  0.94868798  0.22470717    -0.07700
C1406       C  0.75575069  0.94395898  0.23753856    -0.03800
C1407       C  0.75648622  0.92476384  0.24729113    -0.09100
C1408       C  0.74046644  0.91080071  0.24488283    -0.16700
H1409       H  0.63805309  0.84528319  0.23207634     0.11400
H1410       H  0.66077787  0.87176170  0.21743562     0.10700
H1411       H  0.69491055  0.87353507  0.27421938     0.10600
H1412       H  0.67239370  0.84721352  0.28894622     0.11200
H1413       H  0.70964265  0.93883289  0.21322831     0.11200
H1414       H  0.73807717  0.96347993  0.21716274     0.11200
H1415       H  0.76919646  0.92076467  0.25723903     0.11300
H1416       H  0.74102228  0.89629789  0.25303831     0.10200
C1417       C  0.34244538  0.80978841  0.15366955    -0.03600
C1418       C  0.34311391  0.79649321  0.17069155    -0.09400
C1419       C  0.35806432  0.79900346  0.18578815    -0.17100
C1420       C  0.37249072  0.81480324  0.18404891     0.25100
C1421       C  0.37181114  0.82830806  0.16729583    -0.18700
C1422       C  0.35678116  0.82584934  0.15215133    -0.07700
C1423       C  0.38830747  0.81644816  0.19923943    -0.14100
C1424       C  0.40107592  0.81545862  0.21252539    -0.13800
C1425       C  0.41555231  0.81155745  0.22862092     0.25000
C1426       C  0.42822661  0.82722433  0.23604804    -0.19200
C1427       C  0.44256720  0.82298312  0.25146078    -0.07700
C1428       C  0.44422177  0.80304868  0.25955054    -0.03800
C1429       C  0.43118605  0.78752648  0.25221863    -0.09100
C1430       C  0.41697988  0.79176055  0.23678616    -0.16700
H1431       H  0.33219902  0.78403572  0.17224929     0.11400
H1432       H  0.35852980  0.78846410  0.19870242     0.10700
H1433       H  0.38299034  0.84054498  0.16583455     0.10600
H1434       H  0.35654457  0.83627849  0.13915712     0.11200
H1435       H  0.42714746  0.84260889  0.22982196     0.11200
H1436       H  0.45243868  0.83519481  0.25692214     0.11200
H1437       H  0.43219966  0.77203231  0.25816586     0.11300
H1438       H  0.40719583  0.77955586  0.23111525     0.10200
C1439       C  0.51033782  0.73472343  0.18676754    -0.03600
C1440       C  0.51311707  0.74682119  0.16899269    -0.09400
C1441       C  0.49831773  0.74689921  0.15326941    -0.17100
C1442       C  0.48045609  0.73496880  0.15508354     0.25100
C1443       C  0.47759901  0.72292597  0.17276895    -0.18700
C1444       C  0.49239436  0.72276585  0.18843847    -0.07700
C1445       C  0.46504493  0.73501155  0.13892199    -0.14100
C1446       C  0.45179821  0.73462413  0.12579319    -0.13800
C1447       C  0.43544843  0.73376839  0.11061128     0.25000
C1448       C  0.41956856  0.71937294  0.11268863    -0.19200
C1449       C  0.40334054  0.71892210  0.09851704    -0.07700
C1450       C  0.40271195  0.73282892  0.08191773    -0.03800
C1451       C  0.41888479  0.74701462  0.07970080    -0.09100
C1452       C  0.43508741  0.74749579  0.09395164    -0.16700
H1453       H  0.52670624  0.75625975  0.16726804     0.11400
H1454       H  0.50078925  0.75631897  0.13972588     0.10700
H1455       H  0.46388511  0.71364959  0.17447887     0.10600
H1456       H  0.48969053  0.71340566  0.20197327     0.11200
H1457       H  0.41958000  0.70863786  0.12544072     0.11200
H1458       H  0.39111901  0.70785326  0.10072170     0.11200
H1459       H  0.41879556  0.75801701  0.06719322     0.11300
H1460       H  0.44721038  0.75874276  0.09209745     0.10200
C1461       C  0.70829697  0.59511275  0.20589254    -0.03600
C1462       C  0.70652709  0.61493878  0.19743898    -0.09400
C1463       C  0.68927202  0.62717839  0.20153553    -0.17100
C1464       C  0.67331165  0.61991892  0.21412733     0.25100
C1465       C  0.67485417  0.60009960  0.22252287    -0.18700
C1466       C  0.69220575  0.58781942  0.21848564    -0.07700
C1467       C  0.65555499  0.63294868  0.21827848    -0.14100
C1468       C  0.64125724  0.64471170  0.22088038    -0.13800
C1469       C  0.62469999  0.65966031  0.22296211     0.25000
C1470       C  0.60977811  0.65780145  0.23854137    -0.19200
C1471       C  0.59400647  0.67245279  0.24050056    -0.07700
C1472       C  0.59289352  0.68929419  0.22694680    -0.03800
C1473       C  0.60787627  0.69098577  0.21131375    -0.09100
C1474       C  0.62355552  0.67633160  0.20934156    -0.16700
H1475       H  0.71864280  0.62113413  0.18780484     0.11400
H1476       H  0.68843349  0.64241004  0.19490567     0.10700
H1477       H  0.66270528  0.59416401  0.23228667     0.10600
H1478       H  0.69309410  0.57268840  0.22531454     0.11200
H1479       H  0.61038250  0.64508024  0.24926752     0.11200
H1480       H  0.58285766  0.67076407  0.25280066     0.11200
H1481       H  0.60759186  0.70377896  0.20066391     0.11300
H1482       H  0.63490052  0.67810124  0.19721987     0.10200
C1483       C  0.68306526  0.01750185  0.31125477    -0.03600
C1484       C  0.66317859  0.02211753  0.30416145    -0.09400
C1485       C  0.64693914  0.00808879  0.30715004    -0.17100
C1486       C  0.65044345  0.98923693  0.31708637     0.25100
C1487       C  0.67025234  0.98459215  0.32390921    -0.18700
C1488       C  0.68632863  0.99855047  0.32110967    -0.07700
C1489       C  0.63406137  0.97447724  0.32066154    -0.14100
C1490       C  0.62198121  0.96085770  0.32477928    -0.13800
C1491       C  0.60913258  0.94348928  0.33049183     0.25000
C1492       C  0.61670431  0.92848332  0.34396164    -0.19200
C1493       C  0.60481604  0.91121318  0.34895194    -0.07700
C1494       C  0.58508665  0.90857282  0.34052914    -0.03800
C1495       C  0.57742208  0.92385052  0.32728427    -0.09100
C1496       C  0.58934417  0.94116226  0.32232313    -0.16700
H1497       H  0.66018131  0.03655503  0.29648373     0.11400
H1498       H  0.63170416  0.01195014  0.30175066     0.10700
H1499       H  0.67329711  0.97012211  0.33153339     0.10600
H1500       H  0.70145075  0.99439380  0.32659882     0.11200
H1501       H  0.63195603  0.92998781  0.35041759     0.11200
H1502       H  0.61123983  0.89972196  0.35911521     0.11200
H1503       H  0.56234122  0.92225309  0.32048738     0.11300
H1504       H  0.58322398  0.95258235  0.31188777     0.10200
C1505       C  0.34446121  0.78558876  0.44380539    -0.03600
C1506       C  0.35685586  0.79819748  0.43140888    -0.09400
C1507       C  0.37092104  0.78945222  0.41774343    -0.17100
C1508       C  0.37265448  0.76807894  0.41625568     0.25100
C1509       C  0.36011989  0.75541585  0.42827872    -0.18700
C1510       C  0.34609446  0.76414190  0.44203835    -0.07700
C1511       C  0.38779297  0.75957779  0.40265086    -0.14100
C1512       C  0.40161316  0.75698261  0.39061994    -0.13800
C1513       C  0.41791168  0.76085006  0.37627321     0.25000
C1514       C  0.42931026  0.74505705  0.36709510    -0.19200
C1515       C  0.44479183  0.74988866  0.35279584    -0.07700
C1516       C  0.44881415  0.77050698  0.34772773    -0.03800
C1517       C  0.43742580  0.78609989  0.35731593    -0.09100
C1518       C  0.42212696  0.78129115  0.37143843    -0.16700
H1519       H  0.35590173  0.81474722  0.43251402     0.11400
H1520       H  0.38061950  0.79937055  0.40846554     0.10700
H1521       H  0.36134529  0.73888051  0.42719631     0.10600
H1522       H  0.33661175  0.75411418  0.45139080     0.11200
H1523       H  0.42612852  0.72916419  0.37080856     0.11200
H1524       H  0.45333987  0.73761399  0.34551171     0.11200
H1525       H  0.44014159  0.80210165  0.35371026     0.11300
H1526       H  0.41340347  0.79360309  0.37849571     0.10200
C1527       C  0.15817088  0.84669757  0.34934053    -0.03600
C1528       C  0.17488623  0.83380091  0.35360865    -0.09400
C1529       C  0.18845775  0.83856701  0.36941637    -0.17100
C1530       C  0.18559302  0.85627394  0.38121955     0.25100
C1531       C  0.16901361  0.86931738  0.37713802    -0.18700
C1532       C  0.15531105  0.86454057  0.36120244    -0.07700
C1533       C  0.19960791  0.86008594  0.39781659    -0.14100
C1534       C  0.21276421  0.85854029  0.41070641    -0.13800
C1535       C  0.22881026  0.85125429  0.42393132     0.25000
C1536       C  0.23737146  0.86364073  0.43930934    -0.19200
C1537       C  0.25281456  0.85577160  0.45205614    -0.07700
C1538       C  0.25973663  0.83548840  0.44944337    -0.03800
C1539       C  0.25106821  0.82328181  0.43390598    -0.09100
C1540       C  0.23573341  0.83112546  0.42126294    -0.16700
H1541       H  0.17742661  0.81990807  0.34480767     0.11400
H1542       H  0.20116144  0.82830171  0.37255374     0.10700
H1543       H  0.16661157  0.88299830  0.38630551     0.10600
H1544       H  0.14247444  0.87465992  0.35824608     0.11200
H1545       H  0.23209551  0.87924829  0.44147802     0.11200
H1546       H  0.25928432  0.86547342  0.46393878     0.11200
H1547       H  0.25609476  0.80762092  0.43154512     0.11300
H1548       H  0.22919083  0.82142059  0.40939685     0.10200
C1549       C  0.31065684  0.64747211  0.75228009    -0.03600
C1550       C  0.33038663  0.65552876  0.75576223    -0.09400
C1551       C  0.33948318  0.66867399  0.74129435    -0.17100
C1552       C  0.32901895  0.67369359  0.72315549     0.25100
C1553       C  0.30979778  0.66494227  0.71919757    -0.18700
C1554       C  0.30067085  0.65189880  0.73363722    -0.07700
C1555       C  0.33658404  0.68951434  0.70963872    -0.14100
C1556       C  0.33938518  0.70411092  0.69855876    -0.13800
C1557       C  0.33820187  0.72228836  0.68602001     0.25000
C1558       C  0.34854710  0.72359361  0.66709354    -0.19200
C1559       C  0.34493043  0.74023811  0.65390358    -0.07700
C1560       C  0.33076869  0.75556162  0.65947613    -0.03800
C1561       C  0.32108023  0.75447649  0.67882844    -0.09100
C1562       C  0.32480077  0.73797355  0.69199028    -0.16700
H1563       H  0.33847087  0.65221963  0.76994162     0.11400
H1564       H  0.35431157  0.67545045  0.74457556     0.10700
H1565       H  0.30151174  0.66880315  0.70526493     0.10600
H1566       H  0.28555175  0.64574964  0.73046521     0.11200
H1567       H  0.35884921  0.71146752  0.66225302     0.11200
H1568       H  0.35259041  0.74072758  0.63906913     0.11200
H1569       H  0.31017832  0.76610583  0.68356673     0.11300
H1570       H  0.31662981  0.73707665  0.70654579     0.10200
C1571       C  0.31312900  0.94905265  0.76514562    -0.03600
C1572       C  0.32863311  0.93694078  0.75631067    -0.09400
C1573       C  0.32371304  0.92214357  0.74161541    -0.17100
C1574       C  0.30328518  0.91928472  0.73566740     0.25100
C1575       C  0.28768649  0.93100396  0.74467004    -0.18700
C1576       C  0.29258547  0.94586439  0.75936556    -0.07700
C1577       C  0.29868368  0.90489698  0.71965746    -0.14100
C1578       C  0.29696379  0.89297102  0.70565007    -0.13800
C1579       C  0.29768494  0.87868035  0.68889876     0.25000
C1580       C  0.31371671  0.87998708  0.67456106    -0.19200
C1581       C  0.31595718  0.86488090  0.65950345    -0.07700
C1582       C  0.30202417  0.84845829  0.65853863    -0.03800
C1583       C  0.28545719  0.84769051  0.67241333    -0.09100
C1584       C  0.28339824  0.86268574  0.68767860    -0.16700
H1585       H  0.34456603  0.93911860  0.76051578     0.11400
H1586       H  0.33587643  0.91313845  0.73465588     0.10700
H1587       H  0.27183780  0.92887866  0.74011209     0.10600
H1588       H  0.28036496  0.95499581  0.76602360     0.11200
H1589       H  0.32484622  0.89233049  0.67542126     0.11200
H1590       H  0.32876668  0.86581663  0.64885188     0.11200
H1591       H  0.27462699  0.83507851  0.67197006     0.11300
H1592       H  0.27101554  0.86152570  0.69880771     0.10200
C1593       C  0.23746645  0.70030753  0.58567349    -0.03600
C1594       C  0.24524787  0.68111902  0.57945616    -0.09400
C1595       C  0.24316256  0.66379941  0.59229844    -0.17100
C1596       C  0.23336285  0.66542338  0.61156979     0.25100
C1597       C  0.22526279  0.68440253  0.61758019    -0.18700
C1598       C  0.22722892  0.70161405  0.60478268    -0.07700
C1599       C  0.23219131  0.64805497  0.62564970    -0.14100
C1600       C  0.23129187  0.63443560  0.63843604    -0.13800
C1601       C  0.23039446  0.61875538  0.65441451     0.25000
C1602       C  0.21377953  0.61798707  0.66821310    -0.19200
C1603       C  0.21310372  0.60311441  0.68388036    -0.07700
C1604       C  0.22897329  0.58859488  0.68596949    -0.03800
C1605       C  0.24560677  0.58946349  0.67209682    -0.09100
C1606       C  0.24632637  0.60443614  0.65651463    -0.16700
H1607       H  0.25315049  0.67956923  0.56482784     0.11400
H1608       H  0.24950192  0.64924737  0.58734903     0.10700
H1609       H  0.21766177  0.68600347  0.63237398     0.10600
H1610       H  0.22107136  0.71611353  0.61009254     0.11200
H1611       H  0.20137054  0.62896828  0.66694330     0.11200
H1612       H  0.20014172  0.60297730  0.69437613     0.11200
H1613       H  0.25818690  0.57870117  0.67343505     0.11300
H1614       H  0.25937431  0.60487187  0.64612923     0.10200
C1615       C  0.19307031  0.75772931  0.51818990    -0.03600
C1616       C  0.17622978  0.77011733  0.52372943    -0.09400
C1617       C  0.15901790  0.77165698  0.51072525    -0.17100
C1618       C  0.15839664  0.76088260  0.49197755     0.25100
C1619       C  0.17510683  0.74850003  0.48647339    -0.18700
C1620       C  0.19221627  0.74690649  0.49941886    -0.07700
C1621       C  0.14093764  0.76248342  0.47810899    -0.14100
C1622       C  0.12752625  0.76275582  0.46511597    -0.13800
C1623       C  0.11335992  0.76181014  0.44782422     0.25000
C1624       C  0.09488292  0.77294343  0.44767323    -0.19200
C1625       C  0.08206069  0.77259445  0.43019737    -0.07700
C1626       C  0.08756837  0.76110283  0.41263058    -0.03800
C1627       C  0.10583685  0.74959214  0.41322625    -0.09100
C1628       C  0.11855851  0.74997409  0.43057817    -0.16700
H1629       H  0.17641412  0.77867945  0.53803152     0.11400
H1630       H  0.14626497  0.78133100  0.51524817     0.10700
H1631       H  0.17496613  0.74009619  0.47206189     0.10600
H1632       H  0.20491080  0.73730095  0.49459864     0.11200
H1633       H  0.09056111  0.78215852  0.46088436     0.11200
H1634       H  0.06811204  0.78161840  0.43025640     0.11200
H1635       H  0.11058041  0.74056020  0.40003733     0.11300
H1636       H  0.13270963  0.74124811  0.43038333     0.10200
C1637       C  0.42333971  0.85663469  0.51626238    -0.03600
C1638       C  0.43917981  0.84216612  0.51871499    -0.09400
C1639       C  0.45579241  0.84166134  0.50479565    -0.17100
C1640       C  0.45676950  0.85562629  0.48831999     0.25100
C1641       C  0.44114226  0.87014603  0.48601360    -0.18700
C1642       C  0.42462630  0.87065969  0.49980974    -0.07700
C1643       C  0.47333385  0.85503194  0.47333475    -0.14100
C1644       C  0.48597787  0.85558715  0.45958268    -0.13800
C1645       C  0.49960142  0.85696266  0.44189227     0.25000
C1646       C  0.49422242  0.86938887  0.42514090    -0.19200
C1647       C  0.50651167  0.86987459  0.40738858    -0.07700
C1648       C  0.52445954  0.85791170  0.40600736    -0.03800
C1649       C  0.53012998  0.84592086  0.42311474    -0.09100
C1650       C  0.51776474  0.84543793  0.44091570    -0.16700
H1651       H  0.43856293  0.83109783  0.53115285     0.11400
H1652       H  0.46773242  0.83027818  0.50676247     0.10700
H1653       H  0.44160469  0.88100314  0.47336698     0.10600
H1654       H  0.41268500  0.88195391  0.49741495     0.11200
H1655       H  0.48026708  0.87841700  0.42562296     0.11200
H1656       H  0.50167937  0.87927683  0.39452337     0.11200
H1657       H  0.54380996  0.83651252  0.42252534     0.11300
H1658       H  0.52216305  0.83576089  0.45373840     0.10200
C1659       C  0.37281181  0.01899304  0.68895446    -0.03600
C1660       C  0.38564228  0.00163509  0.68931139    -0.09400
C1661       C  0.38554735  0.98758231  0.67298021    -0.17100
C1662       C  0.37266114  0.99062294  0.65599980     0.25100
C1663       C  0.35979548  0.00785023  0.65553149    -0.18700
C1664       C  0.35984306  0.02193034  0.67190146    -0.07700
C1665       C  0.37246234  0.97579327  0.63937475    -0.14100
C1666       C  0.37268086  0.96242754  0.62640530    -0.13800
C1667       C  0.37337592  0.94513311  0.61240425     0.25000
C1668       C  0.36409248  0.94605571  0.59293422    -0.19200
C1669       C  0.36412964  0.92878696  0.57997103    -0.07700
C1670       C  0.37353044  0.91040353  0.58630271    -0.03800
C1671       C  0.38311194  0.90977770  0.60569942    -0.09100
C1672       C  0.38297929  0.92696186  0.61862853    -0.16700
H1673       H  0.39573267  0.99887646  0.70225756     0.11400
H1674       H  0.39550656  0.97429304  0.67363164     0.10700
H1675       H  0.34967896  0.01037151  0.64255163     0.10600
H1676       H  0.34975841  0.03510844  0.67121381     0.11200
H1677       H  0.35659984  0.96000363  0.58788867     0.11200
H1678       H  0.35663881  0.92973674  0.56512001     0.11200
H1679       H  0.39040982  0.89585184  0.61106588     0.11300
H1680       H  0.39018434  0.92598357  0.63363214     0.10200
loop_ 
_geom_bond_atom_site_label_1 
_geom_bond_atom_site_label_2 
_geom_bond_distance 
_geom_bond_site_symmetry_2 
_ccdc_geom_bond_type 
In1           O3   2.240       .  S
In1           O4   2.259       .  S
In1          O12   2.222       .  S
In1           O6   2.276       .  S
In1           O8   2.267       .  S
In1           O9   2.255       .  S
In1          O10   2.214       .  S
In1          O13   2.211       .  S
C2            O8   1.271       .  A
C2           O10   1.261       .  A
C2           C28   1.468       .  S
O3           C11   1.264       .  A
O4           C11   1.267       .  A
C5           O12   1.262       .  A
C5            O6   1.269       .  A
C5         C1637   1.487       .  S
C7            O9   1.269       .  A
C7           O13   1.261       .  A
C7           C41   1.463       .  S
C11        C1670   1.486       .  S
In14         O16   2.228       .  S
In14         O17   2.272       .  S
In14         O25   2.231       .  S
In14         O19   2.270       .  S
In14         O21   2.261       .  S
In14         O22   2.257       .  S
In14         O23   2.219       .  S
In14         O26   2.213       .  S
C15          O21   1.273       .  A
C15          O23   1.265       .  A
C15          C37   1.474       .  S
O16          C24   1.266       .  A
O17          C24   1.272       .  A
C18          O25   1.266       .  A
C18          O19   1.272       .  A
C18        C1615   1.492       .  S
C20          O22   1.274       .  A
C20          O26   1.264       .  A
C20          C50   1.469       .  S
C24        C1593   1.492       .  S
In27         O29   2.249       .  S
In27         O30   2.279       .  S
In27         O38   2.238       .  S
In27         O32   2.262       .  S
In27         O34   2.271       .  S
In27         O35   2.246       .  S
In27         O36   2.234       .  S
In27         O39   2.229       .  S
C28          O34   1.262       .  A
C28          O36   1.261       .  A
O29          C37   1.259       .  A
O30          C37   1.260       .  A
C31          O38   1.258       .  A
C31          O32   1.261       .  A
C31        C1560   1.477       .  S
C33          O35   1.263       .  A
C33          O39   1.260       .  A
C33        C1582   1.468       .  S
In40         O42   2.250       .  S
In40         O43   2.268       .  S
In40         O51   2.228       .  S
In40         O45   2.254       .  S
In40         O47   2.270       .  S
In40         O48   2.223       .  S
In40         O49   2.234       .  S
In40         O52   2.246       .  S
C41          O47   1.259       .  A
C41          O49   1.258       .  A
O42          C50   1.260       .  A
O43          C50   1.257       .  A
C44          O51   1.259       .  A
C44          O45   1.261       .  A
C44        C1538   1.473       .  S
C46          O48   1.259       .  A
C46          O52   1.262       .  A
C46        C1505   1.470       .  S
In53         O55   2.223       .  S
In53         O56   2.252       .  S
In53         O64   2.231       .  S
In53         O58   2.268       .  S
In53         O60   2.260       .  S
In53         O61   2.258       .  S
In53         O62   2.201       .  S
In53         O65   2.243       .  S
C54          O60   1.274       .  A
C54          O62   1.263       .  A
C54          C98   1.466       .  S
O55          C63   1.263       .  A
O56          C63   1.272       .  A
C57          O64   1.265       .  A
C57          O58   1.271       .  A
C57        C1648   1.490       .  S
C59          O61   1.270       .  A
C59          O65   1.266       .  A
C59        C1494   1.491       .  S
C63          C85   1.469       .  S
In66         O68   2.204       .  S
In66         O69   2.251       .  S
In66         O77   2.243       .  S
In66         O71   2.273       .  S
In66         O73   2.274       .  S
In66         O74   2.256       .  S
In66         O75   2.205       .  S
In66         O78   2.243       .  S
C67          O73   1.274       .  A
C67          O75   1.262       .  A
C67          C80   1.471       .  S
O68          C76   1.262       .  A
O69          C76   1.272       .  A
C70          O77   1.265       .  A
C70          O71   1.271       .  A
C70        C1472   1.496       .  S
C72          O74   1.269       .  A
C72          O78   1.267       .  A
C72        C1439   1.490       .  S
C76          C93   1.462       .  S
In79         O81   2.227       .  S
In79         O82   2.242       .  S
In79         O90   2.207       .  S
In79         O84   2.262       .  S
In79         O86   2.287       .  S
In79         O87   2.261       .  S
In79         O88   2.229       .  S
In79         O91   2.253       .  S
C80          O86   1.262       .  A
C80          O88   1.258       .  A
O81          C89   1.260       .  A
O82          C89   1.262       .  A
C83          O90   1.259       .  A
C83          O84   1.263       .  A
C83        C1516   1.471       .  S
C85          O87   1.258       .  A
C85          O91   1.262       .  A
C89        C1428   1.469       .  S
In92         O94   2.221       .  S
In92         O95   2.252       .  S
In92        O103   2.236       .  S
In92         O97   2.242       .  S
In92         O99   2.263       .  S
In92        O100   2.275       .  S
In92        O101   2.233       .  S
In92        O104   2.235       .  S
C93          O99   1.259       .  A
C93         O101   1.259       .  A
O94         C102   1.260       .  A
O95         C102   1.262       .  A
C96         O103   1.262       .  A
C96          O97   1.261       .  A
C96        C1395   1.474       .  S
C98         O100   1.259       .  A
C98         O104   1.259       .  A
C102       C1373   1.473       .  S
In105       O107   2.243       .  S
In105       O108   2.271       .  S
In105       O116   2.238       .  S
In105       O110   2.274       .  S
In105       O112   2.264       .  S
In105       O113   2.256       .  S
In105       O114   2.201       .  S
In105       O117   2.210       .  S
C106        O112   1.274       .  A
C106        O114   1.263       .  A
C106        C141   1.466       .  S
O107        C115   1.267       .  A
O108        C115   1.271       .  A
C109        O116   1.265       .  A
C109        O110   1.271       .  A
C109       C1351   1.494       .  S
C111        O113   1.273       .  A
C111        O117   1.262       .  A
C111        C154   1.466       .  S
C115       C1461   1.496       .  S
In118       O120   2.250       .  S
In118       O121   2.266       .  S
In118       O129   2.240       .  S
In118       O123   2.268       .  S
In118       O125   2.275       .  S
In118       O126   2.258       .  S
In118       O127   2.201       .  S
In118       O130   2.220       .  S
C119        O125   1.271       .  A
C119        O127   1.260       .  A
C119        C145   1.467       .  S
O120        C128   1.266       .  A
O121        C128   1.269       .  A
C122        O129   1.266       .  A
C122        O123   1.270       .  A
C122       C1340   1.493       .  S
C124        O126   1.270       .  A
C124        O130   1.262       .  A
C124        C132   1.469       .  S
C128       C1307   1.492       .  S
In131       O133   2.228       .  S
In131       O134   2.275       .  S
In131       O142   2.233       .  S
In131       O136   2.246       .  S
In131       O138   2.273       .  S
In131       O139   2.257       .  S
In131       O140   2.252       .  S
In131       O143   2.230       .  S
C132        O138   1.258       .  A
C132        O140   1.258       .  A
O133        C141   1.260       .  A
O134        C141   1.261       .  A
C135        O142   1.261       .  A
C135        O136   1.263       .  A
C135       C1384   1.472       .  S
C137        O139   1.261       .  A
C137        O143   1.257       .  A
C137       C1296   1.472       .  S
In144       O146   2.236       .  S
In144       O147   2.255       .  S
In144       O155   2.262       .  S
In144       O149   2.230       .  S
In144       O151   2.288       .  S
In144       O152   2.240       .  S
In144       O153   2.223       .  S
In144       O156   2.231       .  S
C145        O151   1.261       .  A
C145        O153   1.255       .  A
O146        C154   1.265       .  A
O147        C154   1.260       .  A
C148        O155   1.261       .  A
C148        O149   1.258       .  A
C148       C1263   1.474       .  S
C150        O152   1.259       .  A
C150        O156   1.259       .  A
C150       C1252   1.468       .  S
In157       O159   2.248       .  S
In157       O160   2.246       .  S
In157       O168   2.222       .  S
In157       O162   2.284       .  S
In157       O164   2.270       .  S
In157       O165   2.257       .  S
In157       O166   2.196       .  S
In157       O169   2.214       .  S
C158        O164   1.272       .  A
C158        O166   1.260       .  A
C158        C197   1.463       .  S
O159        C167   1.266       .  A
O160        C167   1.267       .  A
C161        O168   1.263       .  A
C161        O162   1.270       .  A
C161       C1483   1.490       .  S
C163        O165   1.269       .  A
C163        O169   1.262       .  A
C163        C184   1.466       .  S
C167       C1230   1.485       .  S
In170       O172   2.241       .  S
In170       O173   2.258       .  S
In170       O181   2.233       .  S
In170       O175   2.277       .  S
In170       O177   2.265       .  S
In170       O178   2.244       .  S
In170       O179   2.203       .  S
In170       O182   2.214       .  S
C171        O177   1.274       .  A
C171        O179   1.262       .  A
C171        C193   1.467       .  S
O172        C180   1.267       .  A
O173        C180   1.269       .  A
C174        O181   1.265       .  A
C174        O175   1.272       .  A
C174       C1197   1.494       .  S
C176        O178   1.272       .  A
C176        O182   1.263       .  A
C176        C206   1.463       .  S
C180       C1186   1.491       .  S
In183       O185   2.231   1_565  S
In183       O186   2.272       .  S
In183       O194   2.245       .  S
In183       O188   2.244       .  S
In183       O190   2.278   1_565  S
In183       O191   2.236       .  S
In183       O192   2.236   1_565  S
In183       O195   2.253       .  S
C184        O190   1.259       .  A
C184        O192   1.256       .  A
O185        C193   1.260       .  A
O186        C193   1.260   1_565  A
C187        O194   1.263       .  A
C187        O188   1.263       .  A
C187       C1153   1.478       .  S
C189        O191   1.259       .  A
C189        O195   1.259       .  A
C189       C1406   1.472       .  S
In196       O198   2.234       .  S
In196       O199   2.244       .  S
In196       O207   2.234       .  S
In196       O201   2.246       .  S
In196       O203   2.280       .  S
In196       O204   2.238       .  S
In196       O205   2.218       .  S
In196       O208   2.224       .  S
C197        O203   1.260       .  A
C197        O205   1.256       .  A
O198        C206   1.265       .  A
O199        C206   1.261       .  A
C200        O207   1.257       .  A
C200        O201   1.257       .  A
C200       C1142   1.463       .  S
C202        O204   1.259       .  A
C202        O208   1.259       .  A
C202       C1120   1.466       .  S
In209       O211   2.217       .  S
In209       O212   2.263       .  S
In209       O220   2.239       .  S
In209       O214   2.280       .  S
In209       O216   2.277       .  S
In209       O217   2.266       .  S
In209       O218   2.198       .  S
In209       O221   2.244       .  S
C210        O216   1.272       .  A
C210        O218   1.260       .  A
C210        C223   1.468       .  S
O211        C219   1.262       .  A
O212        C219   1.270       .  A
C213        O220   1.264       .  A
C213        O214   1.270       .  A
C213       C1175   1.494       .  S
C215        O217   1.268       .  A
C215        O221   1.265       .  A
C215       C1087   1.491       .  S
C219        C249   1.468       .  S
In222       O224   2.240       .  S
In222       O225   2.216       .  S
In222       O233   2.215       .  S
In222       O227   2.259       .  S
In222       O229   2.288       .  S
In222       O230   2.259       .  S
In222       O231   2.218       .  S
In222       O234   2.251       .  S
C223        O229   1.262       .  A
C223        O231   1.257       .  A
O224        C232   1.263       .  A
O225        C232   1.261       .  A
C226        O233   1.259       .  A
C226        O227   1.264       .  A
C226       C1527   1.473       .  S
C228        O230   1.258       .  A
C228        O234   1.262       .  A
C228        C245   1.469       .  S
C232       C1065   1.468       .  S
In235       O237   2.226       .  S
In235       O238   2.253       .  S
In235       O246   2.230       .  S
In235       O240   2.279       .  S
In235       O242   2.263       .  S
In235       O243   2.263       .  S
In235       O244   2.198       .  S
In235       O247   2.240       .  S
C236        O242   1.274       .  A
C236        O244   1.262       .  A
C236        C254   1.466       .  S
O237        C245   1.264       .  A
O238        C245   1.271       .  A
C239        O246   1.265       .  A
C239        O240   1.271       .  A
C239       C1626   1.493       .  S
C241        O243   1.270       .  A
C241        O247   1.266       .  A
C241       C1329   1.491       .  S
In248       O250   2.253       .  S
In248       O251   2.247       .  S
In248       O259   2.242       .  S
In248       O253   2.240       .  S
In248       O255   2.279   1_655  S
In248       O256   2.278       .  S
In248       O257   2.237   1_655  S
In248       O260   2.232   1_655  S
C249        O255   1.260       .  A
C249        O257   1.257       .  A
O250        C258   1.258       .  A
O251        C258   1.259       .  A
C252        O259   1.263       .  A
C252        O253   1.263       .  A
C252       C1285   1.475       .  S
C254        O256   1.259   1_455  A
C254        O260   1.259       .  A
C258       C1164   1.475       .  S
In261       O263   2.246       .  S
In261       O264   2.258       .  S
In261       O272   2.225       .  S
In261       O266   2.269       .  S
In261       O268   2.260       .  S
In261       O269   2.257       .  S
In261       O270   2.190       .  S
In261       O273   2.226       .  S
C262        O268   1.273       .  A
C262        O270   1.261       .  A
C262        C288   1.461       .  S
O263        C271   1.266       .  A
O264        C271   1.269       .  A
C265        O272   1.264       .  A
C265        O266   1.270       .  A
C265       C1054   1.489       .  S
C267        O269   1.271       .  A
C267        O273   1.263       .  A
C267        C301   1.470       .  S
C271       C1450   1.490       .  S
In274       O276   2.235       .  S
In274       O277   2.268       .  S
In274       O285   2.241       .  S
In274       O279   2.267       .  S
In274       O281   2.262       .  S
In274       O282   2.263       .  S
In274       O283   2.211       .  S
In274       O286   2.203       .  S
C275        O281   1.272       .  A
C275        O283   1.263       .  A
C275        C310   1.468       .  S
O276        C284   1.266       .  A
O277        C284   1.270       .  A
C278        O285   1.266       .  A
C278        O279   1.270       .  A
C278       C1098   1.493       .  S
C280        O282   1.273       .  A
C280        O286   1.262       .  A
C280        C297   1.466       .  S
C284       C1032   1.491       .  S
In287       O289   2.227       .  S
In287       O290   2.270       .  S
In287       O298   2.196       .  S
In287       O292   2.242       .  S
In287       O294   2.269       .  S
In287       O295   2.241       .  S
In287       O296   2.216       .  S
In287       O299   2.221       .  S
C288        O294   1.260       .  A
C288        O296   1.259       .  A
O289        C297   1.260       .  A
O290        C297   1.261       .  A
C291        O298   1.261       .  A
C291        O292   1.264       .  A
C291       C1076   1.464       .  S
C293        O295   1.262       .  A
C293        O299   1.260       .  A
C293       C1417   1.469       .  S
In300       O302   2.240   1_556  S
In300       O303   2.278       .  S
In300       O311   2.248       .  S
In300       O305   2.245       .  S
In300       O307   2.269       .  S
In300       O308   2.248       .  S
In300       O309   2.254   1_556  S
In300       O312   2.236       .  S
C301        O307   1.258   1_554  A
C301        O309   1.260       .  A
O302        C310   1.258       .  A
O303        C310   1.259   1_556  A
C304        O311   1.261       .  A
C304        O305   1.259       .  A
C304        C988   1.475       .  S
C306        O308   1.262       .  A
C306        O312   1.262       .  A
C306        C999   1.477       .  S
In313       O315   2.217       .  S
In313       O316   2.253       .  S
In313       O324   2.232       .  S
In313       O318   2.271       .  S
In313       O320   2.268       .  S
In313       O321   2.266       .  S
In313       O322   2.202       .  S
In313       O325   2.238       .  S
C314        O320   1.272       .  A
C314        O322   1.261       .  A
C314        C345   1.466       .  S
O315        C323   1.262       .  A
O316        C323   1.270       .  A
C317        O324   1.264       .  A
C317        O318   1.269       .  A
C317       C1043   1.489       .  S
C319        O321   1.268       .  A
C319        O325   1.265       .  A
C319        C966   1.489       .  S
C323        C358   1.464       .  S
In326       O328   2.212       .  S
In326       O329   2.254       .  S
In326       O337   2.230       .  S
In326       O331   2.259       .  S
In326       O333   2.263       .  S
In326       O334   2.260       .  S
In326       O335   2.190       .  S
In326       O338   2.243       .  S
C327        O333   1.274       .  A
C327        O335   1.262       .  A
C327        C353   1.464       .  S
O328        C336   1.264       .  A
O329        C336   1.273       .  A
C330        O337   1.266       .  A
C330        O331   1.271       .  A
C330        C944   1.488       .  S
C332        O334   1.271       .  A
C332        O338   1.266       .  A
C332       C1604   1.492       .  S
C336        C340   1.467       .  S
In339       O341   2.223       .  S
In339       O342   2.262       .  S
In339       O350   2.227       .  S
In339       O344   2.230       .  S
In339       O346   2.266       .  S
In339       O347   2.285       .  S
In339       O348   2.241       .  S
In339       O351   2.230       .  S
C340        O346   1.258       .  A
C340        O348   1.259       .  A
O341        C349   1.257       .  A
O342        C349   1.262       .  A
C343        O350   1.263       .  A
C343        O344   1.263       .  A
C343        C922   1.469       .  S
C345        O347   1.259       .  A
C345        O351   1.257       .  A
C349        C900   1.471       .  S
In352       O354   2.244       .  S
In352       O355   2.236       .  S
In352       O363   2.258       .  S
In352       O357   2.261       .  S
In352       O359   2.284       .  S
In352       O360   2.261       .  S
In352       O361   2.219       .  S
In352       O364   2.240       .  S
C353        O359   1.261       .  A
C353        O361   1.257       .  A
O354        C362   1.264       .  A
O355        C362   1.263       .  A
C356        O363   1.256       .  A
C356        O357   1.258       .  A
C356       C1010   1.478       .  S
C358        O360   1.259       .  A
C358        O364   1.260       .  A
C362       C1549   1.476       .  S
In365       O367   2.214       .  S
In365       O368   2.236       .  S
In365       O376   2.224       .  S
In365       O370   2.274       .  S
In365       O372   2.272       .  S
In365       O373   2.244       .  S
In365       O374   2.198       .  S
In365       O377   2.243       .  S
C366        O372   1.275       .  A
C366        O374   1.262       .  A
C366        C384   1.469       .  S
O367        C375   1.264       .  A
O368        C375   1.271       .  A
C369        O376   1.264       .  A
C369        O370   1.273       .  A
C369       C1021   1.491       .  S
C371        O373   1.268       .  A
C371        O377   1.268       .  A
C371        C867   1.487       .  S
C375        C410   1.460       .  S
In378       O380   2.245       .  S
In378       O381   2.252       .  S
In378       O389   2.256       .  S
In378       O383   2.231       .  S
In378       O385   2.279       .  S
In378       O386   2.287       .  S
In378       O387   2.229       .  S
In378       O390   2.228       .  S
C379        O385   1.262       .  A
C379        O387   1.258       .  A
C379        C401   1.467       .  S
O380        C388   1.257       .  A
O381        C388   1.258       .  A
C382        O389   1.264       .  A
C382        O383   1.262       .  A
C382        C834   1.478       .  S
C384        O386   1.260       .  A
C384        O390   1.258       .  A
C388        C845   1.473       .  S
In391       O393   2.211       .  S
In391       O394   2.264       .  S
In391       O402   2.236       .  S
In391       O396   2.272       .  S
In391       O398   2.273       .  S
In391       O399   2.253       .  S
In391       O400   2.204       .  S
In391       O403   2.235       .  S
C392        O398   1.272       .  A
C392        O400   1.262       .  A
C392        C405   1.469       .  S
O393        C401   1.262       .  A
O394        C401   1.270       .  A
C395        O402   1.264       .  A
C395        O396   1.270       .  A
C395        C812   1.491       .  S
C397        O399   1.269       .  A
C397        O403   1.265       .  A
C397       C1659   1.485       .  S
In404       O406   2.227       .  S
In404       O407   2.232       .  S
In404       O415   2.269       .  S
In404       O409   2.211       .  S
In404       O411   2.285   1_565  S
In404       O412   2.243   1_565  S
In404       O413   2.220   1_565  S
In404       O416   2.240   1_565  S
C405        O411   1.263       .  A
C405        O413   1.257       .  A
O406        C414   1.261       .  A
O407        C414   1.262       .  A
C408        O415   1.265       .  A
C408        O409   1.258       .  A
C408        C977   1.475       .  S
C410        O412   1.258       .  A
C410        O416   1.262       .  A
C414       C1571   1.468       .  S
In417       O419   2.242       .  S
In417       O420   2.260       .  S
In417       O428   2.236       .  S
In417       O422   2.272       .  S
In417       O424   2.263       .  S
In417       O425   2.249       .  S
In417       O426   2.203       .  S
In417       O429   2.216       .  S
C418        O424   1.274       .  A
C418        O426   1.263       .  A
C418        C466   1.468       .  S
O419        C427   1.266       .  A
O420        C427   1.270       .  A
C421        O428   1.265       .  A
C421        O422   1.271       .  A
C421        C790   1.493       .  S
C423        O425   1.271       .  A
C423        O429   1.263       .  A
C423        C453   1.465       .  S
C427        C801   1.491       .  S
In430       O432   2.246       .  S
In430       O433   2.264       .  S
In430       O441   2.228       .  S
In430       O435   2.265       .  S
In430       O437   2.265       .  S
In430       O438   2.247       .  S
In430       O439   2.190       .  S
In430       O442   2.223       .  S
C431        O437   1.274       .  A
C431        O439   1.263       .  A
C431        C444   1.465       .  S
O432        C440   1.267       .  A
O433        C440   1.270       .  A
C434        O441   1.265       .  A
C434        O435   1.272       .  A
C434        C955   1.489       .  S
C436        O438   1.272       .  A
C436        O442   1.264       .  A
C436        C457   1.467       .  S
C440        C768   1.494       .  S
In443       O445   2.241       .  S
In443       O446   2.253       .  S
In443       O454   2.247       .  S
In443       O448   2.197       .  S
In443       O450   2.281       .  S
In443       O451   2.227       .  S
In443       O452   2.213       .  S
In443       O455   2.225       .  S
C444        O450   1.262       .  A
C444        O452   1.258       .  A
O445        C453   1.262       .  A
O446        C453   1.259       .  A
C447        O454   1.266       .  A
C447        O448   1.260       .  A
C447        C724   1.467       .  S
C449        O451   1.261       .  A
C449        O455   1.261       .  A
C449        C735   1.465       .  S
In456       O458   2.231       .  S
In456       O459   2.279       .  S
In456       O467   2.249       .  S
In456       O461   2.233       .  S
In456       O463   2.249       .  S
In456       O464   2.219       .  S
In456       O465   2.248       .  S
In456       O468   2.258       .  S
C457        O463   1.260       .  A
C457        O465   1.264       .  A
O458        C466   1.258       .  A
O459        C466   1.260       .  A
C460        O467   1.260       .  A
C460        O461   1.259       .  A
C460        C856   1.473       .  S
C462        O464   1.258       .  A
C462        O468   1.262       .  A
C462        C911   1.469       .  S
In469       O471   2.219       .  S
In469       O472   2.258       .  S
In469       O480   2.235       .  S
In469       O474   2.272       .  S
In469       O476   2.265   1_554  S
In469       O477   2.271   1_554  S
In469       O478   2.213   1_554  S
In469       O481   2.233   1_554  S
C470        O476   1.272       .  A
C470        O478   1.262       .  A
C470        C514   1.469       .  S
O471        C479   1.262       .  A
O472        C479   1.271       .  A
C473        O480   1.265       .  A
C473        O474   1.270       .  A
C473       C1208   1.491       .  S
C475        O477   1.270       .  A
C475        O481   1.265       .  A
C475        C691   1.491       .  S
C479        C488   1.468       .  S
In482       O484   2.248       .  S
In482       O485   2.244       .  S
In482       O493   2.227       .  S
In482       O487   2.238       .  S
In482       O489   2.276       .  S
In482       O490   2.269       .  S
In482       O491   2.238       .  S
In482       O494   2.249       .  S
C483        O489   1.257       .  A
C483        O491   1.258       .  A
C483        C505   1.466       .  S
O484        C492   1.262       .  A
O485        C492   1.259       .  A
C486        O493   1.261       .  A
C486        O487   1.260       .  A
C486       C1131   1.469       .  S
C488        O490   1.257       .  A
C488        O494   1.259       .  A
C492       C1274   1.476       .  S
In495       O497   2.206       .  S
In495       O498   2.265       .  S
In495       O506   2.247       .  S
In495       O500   2.265       .  S
In495       O502   2.257   1_554  S
In495       O503   2.265   1_554  S
In495       O504   2.208   1_554  S
In495       O507   2.238   1_554  S
C496        O502   1.272       .  A
C496        O504   1.262       .  A
C496        C509   1.464       .  S
O497        C505   1.261       .  A
O498        C505   1.272       .  A
C499        O506   1.266       .  A
C499        O500   1.269       .  A
C499       C1362   1.493       .  S
C501        O503   1.271       .  A
C501        O507   1.266       .  A
C501        C757   1.492       .  S
In508       O510   2.228       .  S
In508       O511   2.237       .  S
In508       O519   2.220       .  S
In508       O513   2.248       .  S
In508       O515   2.263       .  S
In508       O516   2.273       .  S
In508       O517   2.231       .  S
In508       O520   2.236       .  S
C509        O515   1.260       .  A
C509        O517   1.260       .  A
O510        C518   1.261       .  A
O511        C518   1.262       .  A
C512        O519   1.259       .  A
C512        O513   1.262       .  A
C512        C669   1.469       .  S
C514        O516   1.260       .  A
C514        O520   1.259       .  A
C518        C746   1.469       .  S
In521       O523   2.235       .  S
In521       O524   2.254       .  S
In521       O532   2.229       .  S
In521       O526   2.277       .  S
In521       O528   2.271       .  S
In521       O529   2.250       .  S
In521       O530   2.203       .  S
In521       O533   2.215       .  S
C522        O528   1.273       .  A
C522        O530   1.262       .  A
C522        C557   1.468       .  S
O523        C531   1.266       .  A
O524        C531   1.268       .  A
C525        O532   1.263       .  A
C525        O526   1.271       .  A
C525        C658   1.491       .  S
C527        O529   1.270       .  A
C527        O533   1.262       .  A
C527        C570   1.463       .  S
C531        C933   1.486       .  S
In534       O536   2.246       .  S
In534       O537   2.266       .  S
In534       O545   2.230       .  S
In534       O539   2.278       .  S
In534       O541   2.268       .  S
In534       O542   2.268       .  S
In534       O543   2.201       .  S
In534       O546   2.224       .  S
C535        O541   1.271       .  A
C535        O543   1.261       .  A
C535        C561   1.465       .  S
O536        C544   1.265       .  A
O537        C544   1.269       .  A
C538        O545   1.264       .  A
C538        O539   1.269       .  A
C538        C878   1.489       .  S
C540        O542   1.270       .  A
C540        O546   1.262       .  A
C540        C548   1.472       .  S
C544        C702   1.492       .  S
In547       O549   2.231       .  S
In547       O550   2.283       .  S
In547       O558   2.233       .  S
In547       O552   2.248       .  S
In547       O554   2.280       .  S
In547       O555   2.245       .  S
In547       O556   2.246       .  S
In547       O559   2.259       .  S
C548        O554   1.259       .  A
C548        O556   1.259       .  A
O549        C557   1.258       .  A
O550        C557   1.260       .  A
C551        O558   1.261       .  A
C551        O552   1.263       .  A
C551        C889   1.474       .  S
C553        O555   1.258       .  A
C553        O559   1.258       .  A
C553        C823   1.476       .  S
In560       O562   2.240   1_655  S
In560       O563   2.264       .  S
In560       O571   2.242       .  S
In560       O565   2.259       .  S
In560       O567   2.280   1_655  S
In560       O568   2.230       .  S
In560       O569   2.227   1_655  S
In560       O572   2.227       .  S
C561        O567   1.260       .  A
C561        O569   1.257       .  A
O562        C570   1.259       .  A
O563        C570   1.257   1_655  A
C564        O571   1.257       .  A
C564        O565   1.258       .  A
C564        C625   1.473       .  S
C566        O568   1.263       .  A
C566        O572   1.265       .  A
C566        C680   1.470       .  S
In573       O575   2.209       .  S
In573       O576   2.255       .  S
In573       O584   2.230       .  S
In573       O578   2.274       .  S
In573       O580   2.261       .  S
In573       O581   2.269       .  S
In573       O582   2.214       .  S
In573       O585   2.237       .  S
C574        O580   1.272       .  A
C574        O582   1.263       .  A
C574        C605   1.469       .  S
O575        C583   1.262       .  A
O576        C583   1.272       .  A
C577        O584   1.265       .  A
C577        O578   1.271       .  A
C577        C647   1.491       .  S
C579        O581   1.270       .  A
C579        O585   1.265       .  A
C579       C1318   1.491       .  S
C583        C618   1.464       .  S
In586       O588   2.197       .  S
In586       O589   2.244       .  S
In586       O597   2.239       .  S
In586       O591   2.278       .  S
In586       O593   2.274       .  S
In586       O594   2.254       .  S
In586       O595   2.216       .  S
In586       O598   2.226       .  S
C587        O593   1.271       .  A
C587        O595   1.260       .  A
C587        C600   1.471       .  S
O588        C596   1.262       .  A
O589        C596   1.269       .  A
C590        O597   1.264       .  A
C590        O591   1.269       .  A
C590        C779   1.493       .  S
C592        O594   1.267       .  A
C592        O598   1.265       .  A
C592       C1219   1.481       .  S
C596        C613   1.455       .  S
In599       O601   2.239       .  S
In599       O602   2.225       .  S
In599       O610   2.258       .  S
In599       O604   2.226       .  S
In599       O606   2.273       .  S
In599       O607   2.272       .  S
In599       O608   2.234       .  S
In599       O611   2.239       .  S
C600        O606   1.262       .  A
C600        O608   1.261       .  A
O601        C609   1.263       .  A
O602        C609   1.261       .  A
C603        O610   1.262       .  A
C603        O604   1.258       .  A
C603       C1241   1.473       .  S
C605        O607   1.260       .  A
C605        O611   1.260       .  A
C609       C1109   1.469       .  S
In612       O614   2.232       .  S
In612       O615   2.226       .  S
In612       O623   2.228       .  S
In612       O617   2.253       .  S
In612       O619   2.260       .  S
In612       O620   2.262       .  S
In612       O621   2.218       .  S
In612       O624   2.239       .  S
C613        O619   1.260       .  A
C613        O621   1.257       .  A
O614        C622   1.262       .  A
O615        C622   1.261       .  A
C616        O623   1.260       .  A
C616        O617   1.261       .  A
C616        C636   1.474       .  S
C618        O620   1.258       .  A
C618        O624   1.260       .  A
C622        C713   1.468       .  S
C625        C626   1.404       .  A
C625        C630   1.407       .  A
C626        C627   1.394       .  A
C626        H639   1.083       .  S
C627        C628   1.399       .  A
C627        H640   1.084       .  S
C628        C629   1.400       .  A
C628        C631   1.437       .  S
C629        C630   1.401       .  A
C629        H641   1.083       .  S
C630        H642   1.083       .  S
C631        C632   1.205       .  T
C632        C633   1.437       .  S
C633        C634   1.401       .  A
C633        C638   1.398       .  A
C634        C635   1.402       .  A
C634        H643   1.083       .  S
C635        C636   1.407       .  A
C635        H644   1.083       .  S
C636        C637   1.404       .  A
C637        C638   1.393       .  A
C637        H645   1.083       .  S
C638        H646   1.084       .  S
C647        C648   1.408       .  A
C647        C652   1.409       .  A
C648        C649   1.400       .  A
C648        H661   1.083       .  S
C649        C650   1.400       .  A
C649        H662   1.083       .  S
C650        C651   1.406       .  A
C650        C653   1.455       .  S
C651        C652   1.409       .  A
C651        H663   1.083       .  S
C652        H664   1.083       .  S
C653        C654   1.216       .  T
C654        C655   1.455       .  S
C655        C656   1.405   1_655  A
C655        C660   1.401       .  A
C656        C657   1.408       .  A
C656        H665   1.083       .  S
C657        C658   1.408       .  A
C657        H666   1.083       .  S
C658        C659   1.408       .  A
C659        C660   1.401   1_455  A
C659        H667   1.083       .  S
C660        H668   1.084       .  S
C669        C670   1.407       .  A
C669        C674   1.403       .  A
C670        C671   1.400       .  A
C670        H683   1.083       .  S
C671        C672   1.399       .  A
C671        H684   1.083       .  S
C672        C673   1.398       .  A
C672        C675   1.431       .  S
C673        C674   1.390       .  A
C673        H685   1.084       .  S
C674        H686   1.083       .  S
C675        C676   1.201       .  T
C676        C677   1.431       .  S
C677        C678   1.399       .  A
C677        C682   1.398       .  A
C678        C679   1.392       .  A
C678        H687   1.084       .  S
C679        C680   1.403       .  A
C679        H688   1.083       .  S
C680        C681   1.408       .  A
C681        C682   1.399       .  A
C681        H689   1.083       .  S
C682        H690   1.083       .  S
C691        C692   1.408       .  A
C691        C696   1.408       .  A
C692        C693   1.408       .  A
C692        H705   1.083       .  S
C693        C694   1.405       .  A
C693        H706   1.083       .  S
C694        C695   1.401       .  A
C694        C697   1.455       .  S
C695        C696   1.401       .  A
C695        H707   1.084       .  S
C696        H708   1.083       .  S
C697        C698   1.216       .  T
C698        C699   1.456       .  S
C699        C700   1.402       .  A
C699        C704   1.404   1_655  A
C700        C701   1.403   1_655  A
C700        H709   1.083       .  S
C701        C702   1.408       .  A
C701        H710   1.083       .  S
C702        C703   1.408       .  A
C703        C704   1.407       .  A
C703        H711   1.083       .  S
C704        H712   1.083       .  S
C713        C714   1.403       .  A
C713        C718   1.406       .  A
C714        C715   1.393       .  A
C714        H727   1.083       .  S
C715        C716   1.399       .  A
C715        H728   1.085       .  S
C716        C717   1.397       .  A
C716        C719   1.430       .  S
C717        C718   1.396       .  A
C717        H729   1.083       .  S
C718        H730   1.083       .  S
C719        C720   1.200       .  T
C720        C721   1.429       .  S
C721        C722   1.396       .  A
C721        C726   1.400       .  A
C722        C723   1.388       .  A
C722        H731   1.084       .  S
C723        C724   1.404       .  A
C723        H732   1.083       .  S
C724        C725   1.405       .  A
C725        C726   1.400       .  A
C725        H733   1.083       .  S
C726        H734   1.083       .  S
C735        C736   1.404       .  A
C735        C740   1.403       .  A
C736        C737   1.395       .  A
C736        H749   1.083       .  S
C737        C738   1.397       .  A
C737        H750   1.083       .  S
C738        C739   1.398       .  A
C738        C741   1.427       .  S
C739        C740   1.393       .  A
C739        H751   1.084       .  S
C740        H752   1.083       .  S
C741        C742   1.199       .  T
C742        C743   1.428       .  S
C743        C744   1.398       .  A
C743        C748   1.398       .  A
C744        C745   1.397       .  A
C744        H753   1.083       .  S
C745        C746   1.406       .  A
C745        H754   1.083       .  S
C746        C747   1.404       .  A
C747        C748   1.392       .  A
C747        H755   1.083       .  S
C748        H756   1.085       .  S
C757        C758   1.408       .  A
C757        C762   1.408       .  A
C758        C759   1.403       .  A
C758        H771   1.083       .  S
C759        C760   1.402       .  A
C759        H772   1.083       .  S
C760        C761   1.404       .  A
C760        C763   1.457       .  S
C761        C762   1.407       .  A
C761        H773   1.083       .  S
C762        H774   1.083       .  S
C763        C764   1.216       .  T
C764        C765   1.457       .  S
C765        C766   1.404       .  A
C765        C770   1.402       .  A
C766        C767   1.407       .  A
C766        H775   1.083       .  S
C767        C768   1.409       .  A
C767        H776   1.083       .  S
C768        C769   1.409       .  A
C769        C770   1.404       .  A
C769        H777   1.083       .  S
C770        H778   1.083       .  S
C779        C780   1.408       .  A
C779        C784   1.409       .  A
C780        C781   1.401       .  A
C780        H793   1.083       .  S
C781        C782   1.401       .  A
C781        H794   1.083       .  S
C782        C783   1.405       .  A
C782        C785   1.456       .  S
C783        C784   1.409       .  A
C783        H795   1.083       .  S
C784        H796   1.083       .  S
C785        C786   1.216       .  T
C786        C787   1.456       .  S
C787        C788   1.405       .  A
C787        C792   1.401       .  A
C788        C789   1.408       .  A
C788        H797   1.083       .  S
C789        C790   1.408       .  A
C789        H798   1.083       .  S
C790        C791   1.409       .  A
C791        C792   1.402       .  A
C791        H799   1.083       .  S
C792        H800   1.084       .  S
C801        C802   1.408       .  A
C801        C806   1.409       .  A
C802        C803   1.406       .  A
C802        H815   1.083       .  S
C803        C804   1.404       .  A
C803        H816   1.083       .  S
C804        C805   1.402       .  A
C804        C807   1.456       .  S
C805        C806   1.403       .  A
C805        H817   1.083       .  S
C806        H818   1.083       .  S
C807        C808   1.216       .  T
C808        C809   1.456       .  S
C809        C810   1.402       .  A
C809        C814   1.404       .  A
C810        C811   1.403       .  A
C810        H819   1.083       .  S
C811        C812   1.409       .  A
C811        H820   1.083       .  S
C812        C813   1.407       .  A
C813        C814   1.407       .  A
C813        H821   1.083       .  S
C814        H822   1.083       .  S
C823        C824   1.405       .  A
C823        C828   1.406       .  A
C824        C825   1.396       .  A
C824        H837   1.083       .  S
C825        C826   1.399       .  A
C825        H838   1.084       .  S
C826        C827   1.401       .  A
C826        C829   1.439       .  S
C827        C828   1.400       .  A
C827        H839   1.083       .  S
C828        H840   1.083       .  S
C829        C830   1.206       .  T
C830        C831   1.440       .  S
C831        C832   1.401       .  A
C831        C836   1.399       .  A
C832        C833   1.402       .  A
C832        H841   1.083       .  S
C833        C834   1.407       .  A
C833        H842   1.083       .  S
C834        C835   1.405       .  A
C835        C836   1.395       .  A
C835        H843   1.083       .  S
C836        H844   1.084       .  S
C845        C846   1.405       .  A
C845        C850   1.406       .  A
C846        C847   1.396       .  A
C846        H859   1.083       .  S
C847        C848   1.399       .  A
C847        H860   1.084       .  S
C848        C849   1.400       .  A
C848        C851   1.436       .  S
C849        C850   1.398       .  A
C849        H861   1.084       .  S
C850        H862   1.083       .  S
C851        C852   1.204       .  T
C852        C853   1.436       .  S
C853        C854   1.398       .  A
C853        C858   1.400       .  A
C854        C855   1.394       .  A
C854        H863   1.084       .  S
C855        C856   1.405       .  A
C855        H864   1.083       .  S
C856        C857   1.406       .  A
C857        C858   1.400       .  A
C857        H865   1.083       .  S
C858        H866   1.083       .  S
C867        C868   1.408       .  A
C867        C872   1.407       .  A
C868        C869   1.404       .  A
C868        H881   1.083       .  S
C869        C870   1.402       .  A
C869        H882   1.083       .  S
C870        C871   1.402       .  A
C870        C873   1.451       .  S
C871        C872   1.402       .  A
C871        H883   1.084       .  S
C872        H884   1.083       .  S
C873        C874   1.213       .  T
C874        C875   1.451       .  S
C875        C876   1.399       .  A
C875        C880   1.406       .  A
C876        C877   1.398       .  A
C876        H885   1.084       .  S
C877        C878   1.406       .  A
C877        H886   1.083       .  S
C878        C879   1.409       .  A
C879        C880   1.409       .  A
C879        H887   1.083       .  S
C880        H888   1.083       .  S
C889        C890   1.405       .  A
C889        C894   1.406       .  A
C890        C891   1.394       .  A
C890        H903   1.083       .  S
C891        C892   1.398       .  A
C891        H904   1.084       .  S
C892        C893   1.400       .  A
C892        C895   1.435       .  S
C893        C894   1.400       .  A
C893        H905   1.083       .  S
C894        H906   1.083       .  S
C895        C896   1.203       .  T
C896        C897   1.435       .  S
C897        C898   1.401       .  A
C897        C902   1.397       .  A
C898        C899   1.401       .  A
C898        H907   1.083       .  S
C899        C900   1.405       .  A
C899        H908   1.083       .  S
C900        C901   1.404       .  A
C901        C902   1.392       .  A
C901        H909   1.083       .  S
C902        H910   1.084       .  S
C911        C912   1.405       .  A
C911        C916   1.404       .  A
C912        C913   1.400       .  A
C912        H925   1.083       .  S
C913        C914   1.400       .  A
C913        H926   1.083       .  S
C914        C915   1.397       .  A
C914        C917   1.432       .  S
C915        C916   1.392       .  A
C915        H927   1.084       .  S
C916        H928   1.083       .  S
C917        C918   1.201       .  T
C918        C919   1.432       .  S
C919        C920   1.398       .  A
C919        C924   1.399       .  A
C920        C921   1.397       .  A
C920        H929   1.083       .  S
C921        C922   1.406       .  A
C921        H930   1.083       .  S
C922        C923   1.403       .  A
C923        C924   1.393       .  A
C923        H931   1.083       .  S
C924        H932   1.084       .  S
C933        C934   1.408       .  A
C933        C938   1.407       .  A
C934        C935   1.405       .  A
C934        H947   1.083       .  S
C935        C936   1.403       .  A
C935        H948   1.083       .  S
C936        C937   1.400       .  A
C936        C939   1.450       .  S
C937        C938   1.400       .  A
C937        H949   1.084       .  S
C938        H950   1.083       .  S
C939        C940   1.212       .  T
C940        C941   1.450       .  S
C941        C942   1.400       .  A
C941        C946   1.403       .  A
C942        C943   1.400       .  A
C942        H951   1.084       .  S
C943        C944   1.408       .  A
C943        H952   1.083       .  S
C944        C945   1.408       .  A
C945        C946   1.406       .  A
C945        H953   1.083       .  S
C946        H954   1.083       .  S
C955        C956   1.408       .  A
C955        C960   1.408       .  A
C956        C957   1.401       .  A
C956        H969   1.083       .  S
C957        C958   1.401       .  A
C957        H970   1.084       .  S
C958        C959   1.404       .  A
C958        C961   1.453       .  S
C959        C960   1.407       .  A
C959        H971   1.083       .  S
C960        H972   1.083       .  S
C961        C962   1.214       .  T
C962        C963   1.453       .  S
C963        C964   1.404       .  A
C963        C968   1.401       .  A
C964        C965   1.407       .  A
C964        H973   1.083       .  S
C965        C966   1.409       .  A
C965        H974   1.083       .  S
C966        C967   1.407       .  A
C967        C968   1.401       .  A
C967        H975   1.083       .  S
C968        H976   1.083       .  S
C977        C978   1.404       .  A
C977        C982   1.407       .  A
C978        C979   1.389       .  A
C978        H991   1.083       .  S
C979        C980   1.396       .  A
C979        H992   1.085       .  S
C980        C981   1.403       .  A
C980        C983   1.437       .  S
C981        C982   1.405       .  A
C981        H993   1.083       .  S
C982        H994   1.083       .  S
C983        C984   1.205       .  T
C984        C985   1.438       .  S
C985        C986   1.400       .  A
C985        C990   1.399       .  A
C986        C987   1.396       .  A
C986        H995   1.084       .  S
C987        C988   1.404       .  A
C987        H996   1.083       .  S
C988        C989   1.407       .  A
C989        C990   1.400       .  A
C989        H997   1.083       .  S
C990        H998   1.083       .  S
C999       C1000   1.407       .  A
C999       C1004   1.404       .  A
C1000      C1001   1.402       .  A
C1000      H1013   1.083       .  S
C1001      C1002   1.401       .  A
C1001      H1014   1.083       .  S
C1002      C1003   1.399       .  A
C1002      C1005   1.441       .  S
C1003      C1004   1.396       .  A
C1003      H1015   1.084       .  S
C1004      H1016   1.083       .  S
C1005      C1006   1.207       .  T
C1006      C1007   1.441       .  S
C1007      C1008   1.400       .  A
C1007      C1012   1.400       .  A
C1008      C1009   1.400       .  A
C1008      H1017   1.083       .  S
C1009      C1010   1.407       .  A
C1009      H1018   1.083       .  S
C1010      C1011   1.405       .  A
C1011      C1012   1.398       .  A
C1011      H1019   1.083       .  S
C1012      H1020   1.084       .  S
C1021      C1022   1.407       .  A
C1021      C1026   1.409       .  A
C1022      C1023   1.408       .  A
C1022      H1035   1.083       .  S
C1023      C1024   1.405   1_545  A
C1023      H1036   1.083       .  S
C1024      C1025   1.401       .  A
C1024      C1027   1.455       .  S
C1025      C1026   1.401   1_565  A
C1025      H1037   1.084       .  S
C1026      H1038   1.083       .  S
C1027      C1028   1.215       .  T
C1028      C1029   1.455       .  S
C1029      C1030   1.401       .  A
C1029      C1034   1.405       .  A
C1030      C1031   1.402       .  A
C1030      H1039   1.083       .  S
C1031      C1032   1.408   1_556  A
C1031      H1040   1.083       .  S
C1032      C1033   1.408       .  A
C1033      C1034   1.408   1_554  A
C1033      H1041   1.083       .  S
C1034      H1042   1.083       .  S
C1043      C1044   1.408       .  A
C1043      C1048   1.408       .  A
C1044      C1045   1.400       .  A
C1044      H1057   1.083       .  S
C1045      C1046   1.400       .  A
C1045      H1058   1.084       .  S
C1046      C1047   1.404       .  A
C1046      C1049   1.452       .  S
C1047      C1048   1.407       .  A
C1047      H1059   1.083       .  S
C1048      H1060   1.083       .  S
C1049      C1050   1.214       .  T
C1050      C1051   1.452       .  S
C1051      C1052   1.404       .  A
C1051      C1056   1.400       .  A
C1052      C1053   1.407   1_556  A
C1052      H1061   1.083       .  S
C1053      C1054   1.408       .  A
C1053      H1062   1.083       .  S
C1054      C1055   1.408   1_554  A
C1055      C1056   1.400       .  A
C1055      H1063   1.083       .  S
C1056      H1064   1.083       .  S
C1065      C1066   1.404       .  A
C1065      C1070   1.405       .  A
C1066      C1067   1.396       .  A
C1066      H1079   1.083       .  S
C1067      C1068   1.401       .  A
C1067      H1080   1.084       .  S
C1068      C1069   1.395       .  A
C1068      C1071   1.428       .  S
C1069      C1070   1.393       .  A
C1069      H1081   1.084       .  S
C1070      H1082   1.083       .  S
C1071      C1072   1.199       .  T
C1072      C1073   1.427       .  S
C1073      C1074   1.400       .  A
C1073      C1078   1.395       .  A
C1074      C1075   1.399       .  A
C1074      H1083   1.083       .  S
C1075      C1076   1.405       .  A
C1075      H1084   1.083       .  S
C1076      C1077   1.403       .  A
C1077      C1078   1.387       .  A
C1077      H1085   1.083       .  S
C1078      H1086   1.084       .  S
C1087      C1088   1.408       .  A
C1087      C1092   1.408       .  A
C1088      C1089   1.407       .  A
C1088      H1101   1.083       .  S
C1089      C1090   1.404       .  A
C1089      H1102   1.083       .  S
C1090      C1091   1.402       .  A
C1090      C1093   1.456       .  S
C1091      C1092   1.402       .  A
C1091      H1103   1.083       .  S
C1092      H1104   1.083       .  S
C1093      C1094   1.216       .  T
C1094      C1095   1.456       .  S
C1095      C1096   1.401       .  A
C1095      C1100   1.405       .  A
C1096      C1097   1.402       .  A
C1096      H1105   1.084       .  S
C1097      C1098   1.408       .  A
C1097      H1106   1.083       .  S
C1098      C1099   1.409       .  A
C1099      C1100   1.408       .  A
C1099      H1107   1.083       .  S
C1100      H1108   1.083       .  S
C1109      C1110   1.406       .  A
C1109      C1114   1.404       .  A
C1110      C1111   1.398       .  A
C1110      H1123   1.083       .  S
C1111      C1112   1.398       .  A
C1111      H1124   1.084       .  S
C1112      C1113   1.398       .  A
C1112      C1115   1.429       .  S
C1113      C1114   1.392       .  A
C1113      H1125   1.084       .  S
C1114      H1126   1.083       .  S
C1115      C1116   1.199       .  T
C1116      C1117   1.428       .  S
C1117      C1118   1.398       .  A
C1117      C1122   1.398       .  A
C1118      C1119   1.397       .  A
C1118      H1127   1.083       .  S
C1119      C1120   1.406       .  A
C1119      H1128   1.083       .  S
C1120      C1121   1.403       .  A
C1121      C1122   1.390       .  A
C1121      H1129   1.083       .  S
C1122      H1130   1.084       .  S
C1131      C1132   1.406       .  A
C1131      C1136   1.403       .  A
C1132      C1133   1.398       .  A
C1132      H1145   1.083       .  S
C1133      C1134   1.398       .  A
C1133      H1146   1.083       .  S
C1134      C1135   1.398       .  A
C1134      C1137   1.430       .  S
C1135      C1136   1.392       .  A
C1135      H1147   1.084       .  S
C1136      H1148   1.083       .  S
C1137      C1138   1.200       .  T
C1138      C1139   1.430       .  S
C1139      C1140   1.398       .  A
C1139      C1144   1.399       .  A
C1140      C1141   1.393       .  A
C1140      H1149   1.084       .  S
C1141      C1142   1.402       .  A
C1141      H1150   1.083       .  S
C1142      C1143   1.404       .  A
C1143      C1144   1.396       .  A
C1143      H1151   1.083       .  S
C1144      H1152   1.084       .  S
C1153      C1154   1.406       .  A
C1153      C1158   1.406       .  A
C1154      C1155   1.399       .  A
C1154      H1167   1.083       .  S
C1155      C1156   1.401       .  A
C1155      H1168   1.084       .  S
C1156      C1157   1.400       .  A
C1156      C1159   1.441       .  S
C1157      C1158   1.400       .  A
C1157      H1169   1.083       .  S
C1158      H1170   1.083       .  S
C1159      C1160   1.207       .  T
C1160      C1161   1.440       .  S
C1161      C1162   1.401       .  A
C1161      C1166   1.399       .  A
C1162      C1163   1.401       .  A
C1162      H1171   1.083       .  S
C1163      C1164   1.407       .  A
C1163      H1172   1.083       .  S
C1164      C1165   1.404       .  A
C1165      C1166   1.396       .  A
C1165      H1173   1.083       .  S
C1166      H1174   1.084       .  S
C1175      C1176   1.409       .  A
C1175      C1180   1.408       .  A
C1176      C1177   1.409       .  A
C1176      H1189   1.083       .  S
C1177      C1178   1.406   1_455  A
C1177      H1190   1.083       .  S
C1178      C1179   1.400       .  A
C1178      C1181   1.456       .  S
C1179      C1180   1.401   1_655  A
C1179      H1191   1.084       .  S
C1180      H1192   1.083       .  S
C1181      C1182   1.216       .  T
C1182      C1183   1.456       .  S
C1183      C1184   1.402       .  A
C1183      C1188   1.404   1_565  A
C1184      C1185   1.403   1_565  A
C1184      H1193   1.083       .  S
C1185      C1186   1.408       .  A
C1185      H1194   1.083   1_545  S
C1186      C1187   1.408       .  A
C1187      C1188   1.406       .  A
C1187      H1195   1.083       .  S
C1188      H1196   1.083       .  S
C1197      C1198   1.409       .  A
C1197      C1202   1.409       .  A
C1198      C1199   1.409       .  A
C1198      H1211   1.083       .  S
C1199      C1200   1.405       .  A
C1199      H1212   1.083       .  S
C1200      C1201   1.401       .  A
C1200      C1203   1.457       .  S
C1201      C1202   1.401       .  A
C1201      H1213   1.084       .  S
C1202      H1214   1.083       .  S
C1203      C1204   1.216       .  T
C1204      C1205   1.456       .  S
C1205      C1206   1.401       .  A
C1205      C1210   1.405       .  A
C1206      C1207   1.401       .  A
C1206      H1215   1.083       .  S
C1207      C1208   1.408       .  A
C1207      H1216   1.083       .  S
C1208      C1209   1.408       .  A
C1209      C1210   1.409       .  A
C1209      H1217   1.083       .  S
C1210      H1218   1.083       .  S
C1219      C1220   1.408       .  A
C1219      C1224   1.405       .  A
C1220      C1221   1.405       .  A
C1220      H1233   1.083       .  S
C1221      C1222   1.403       .  A
C1221      H1234   1.083       .  S
C1222      C1223   1.399       .  A
C1222      C1225   1.446       .  S
C1223      C1224   1.397       .  A
C1223      H1235   1.084       .  S
C1224      H1236   1.083       .  S
C1225      C1226   1.210       .  T
C1226      C1227   1.447       .  S
C1227      C1228   1.402       .  A
C1227      C1232   1.401       .  A
C1228      C1229   1.402       .  A
C1228      H1237   1.084       .  S
C1229      C1230   1.407       .  A
C1229      H1238   1.083       .  S
C1230      C1231   1.407       .  A
C1231      C1232   1.402       .  A
C1231      H1239   1.083       .  S
C1232      H1240   1.083       .  S
C1241      C1242   1.406       .  A
C1241      C1246   1.405       .  A
C1242      C1243   1.400       .  A
C1242      H1255   1.083       .  S
C1243      C1244   1.400       .  A
C1243      H1256   1.084       .  S
C1244      C1245   1.397       .  A
C1244      C1247   1.433       .  S
C1245      C1246   1.392       .  A
C1245      H1257   1.084       .  S
C1246      H1258   1.083       .  S
C1247      C1248   1.202       .  T
C1248      C1249   1.432       .  S
C1249      C1250   1.399       .  A
C1249      C1254   1.398       .  A
C1250      C1251   1.398       .  A
C1250      H1259   1.083       .  S
C1251      C1252   1.406       .  A
C1251      H1260   1.083       .  S
C1252      C1253   1.404       .  A
C1253      C1254   1.393       .  A
C1253      H1261   1.083       .  S
C1254      H1262   1.084       .  S
C1263      C1264   1.407       .  A
C1263      C1268   1.404       .  A
C1264      C1265   1.402       .  A
C1264      H1277   1.083       .  S
C1265      C1266   1.402       .  A
C1265      H1278   1.083       .  S
C1266      C1267   1.398       .  A
C1266      C1269   1.438       .  S
C1267      C1268   1.393       .  A
C1267      H1279   1.084       .  S
C1268      H1280   1.083       .  S
C1269      C1270   1.205       .  T
C1270      C1271   1.438       .  S
C1271      C1272   1.400       .  A
C1271      C1276   1.400       .  A
C1272      C1273   1.401       .  A
C1272      H1281   1.083       .  S
C1273      C1274   1.408       .  A
C1273      H1282   1.083       .  S
C1274      C1275   1.404       .  A
C1275      C1276   1.395       .  A
C1275      H1283   1.083       .  S
C1276      H1284   1.084       .  S
C1285      C1286   1.406       .  A
C1285      C1290   1.405       .  A
C1286      C1287   1.398       .  A
C1286      H1299   1.083       .  S
C1287      C1288   1.399       .  A
C1287      H1300   1.084       .  S
C1288      C1289   1.400       .  A
C1288      C1291   1.437       .  S
C1289      C1290   1.397       .  A
C1289      H1301   1.084       .  S
C1290      H1302   1.083       .  S
C1291      C1292   1.204       .  T
C1292      C1293   1.436       .  S
C1293      C1294   1.399       .  A
C1293      C1298   1.400       .  A
C1294      C1295   1.395       .  A
C1294      H1303   1.084       .  S
C1295      C1296   1.406       .  A
C1295      H1304   1.083       .  S
C1296      C1297   1.404       .  A
C1297      C1298   1.398       .  A
C1297      H1305   1.083       .  S
C1298      H1306   1.083       .  S
C1307      C1308   1.408       .  A
C1307      C1312   1.408       .  A
C1308      C1309   1.404       .  A
C1308      H1321   1.083       .  S
C1309      C1310   1.402       .  A
C1309      H1322   1.083       .  S
C1310      C1311   1.404       .  A
C1310      C1313   1.456       .  S
C1311      C1312   1.407       .  A
C1311      H1323   1.083       .  S
C1312      H1324   1.083       .  S
C1313      C1314   1.215       .  T
C1314      C1315   1.455       .  S
C1315      C1316   1.405       .  A
C1315      C1320   1.401       .  A
C1316      C1317   1.407       .  A
C1316      H1325   1.083       .  S
C1317      C1318   1.408       .  A
C1317      H1326   1.083       .  S
C1318      C1319   1.408       .  A
C1319      C1320   1.402       .  A
C1319      H1327   1.083       .  S
C1320      H1328   1.083       .  S
C1329      C1330   1.408       .  A
C1329      C1334   1.408       .  A
C1330      C1331   1.407       .  A
C1330      H1343   1.083       .  S
C1331      C1332   1.404       .  A
C1331      H1344   1.083       .  S
C1332      C1333   1.402   1_455  A
C1332      C1335   1.456   1_455  S
C1333      C1334   1.403   1_655  A
C1333      H1345   1.083       .  S
C1334      H1346   1.083       .  S
C1335      C1336   1.216       .  T
C1336      C1337   1.456       .  S
C1337      C1338   1.401       .  A
C1337      C1342   1.405       .  A
C1338      C1339   1.402       .  A
C1338      H1347   1.084       .  S
C1339      C1340   1.408       .  A
C1339      H1348   1.083       .  S
C1340      C1341   1.408       .  A
C1341      C1342   1.408       .  A
C1341      H1349   1.083       .  S
C1342      H1350   1.083       .  S
C1351      C1352   1.409       .  A
C1351      C1356   1.408       .  A
C1352      C1353   1.410       .  A
C1352      H1365   1.083       .  S
C1353      C1354   1.406       .  A
C1353      H1366   1.083       .  S
C1354      C1355   1.401       .  A
C1354      C1357   1.458       .  S
C1355      C1356   1.402       .  A
C1355      H1367   1.083       .  S
C1356      H1368   1.083       .  S
C1357      C1358   1.217       .  T
C1358      C1359   1.459       .  S
C1359      C1360   1.403       .  A
C1359      C1364   1.405       .  A
C1360      C1361   1.404       .  A
C1360      H1369   1.083       .  S
C1361      C1362   1.408       .  A
C1361      H1370   1.083       .  S
C1362      C1363   1.409       .  A
C1363      C1364   1.408       .  A
C1363      H1371   1.083       .  S
C1364      H1372   1.083       .  S
C1373      C1374   1.407       .  A
C1373      C1378   1.404       .  A
C1374      C1375   1.402       .  A
C1374      H1387   1.082       .  S
C1375      C1376   1.401       .  A
C1375      H1388   1.084       .  S
C1376      C1377   1.398       .  A
C1376      C1379   1.436       .  S
C1377      C1378   1.392       .  A
C1377      H1389   1.083       .  S
C1378      H1390   1.084       .  S
C1379      C1380   1.204       .  T
C1380      C1381   1.436       .  S
C1381      C1382   1.399       .  A
C1381      C1386   1.400       .  A
C1382      C1383   1.395       .  A
C1382      H1391   1.084       .  S
C1383      C1384   1.404       .  A
C1383      H1392   1.083       .  S
C1384      C1385   1.405       .  A
C1385      C1386   1.399       .  A
C1385      H1393   1.084       .  S
C1386      H1394   1.083       .  S
C1395      C1396   1.407       .  A
C1395      C1400   1.404       .  A
C1396      C1397   1.400       .  A
C1396      H1409   1.083       .  S
C1397      C1398   1.399       .  A
C1397      H1410   1.083       .  S
C1398      C1399   1.399       .  A
C1398      C1401   1.436       .  S
C1399      C1400   1.394       .  A
C1399      H1411   1.084       .  S
C1400      H1412   1.083       .  S
C1401      C1402   1.204       .  T
C1402      C1403   1.436       .  S
C1403      C1404   1.401       .  A
C1403      C1408   1.398       .  A
C1404      C1405   1.401       .  A
C1404      H1413   1.083       .  S
C1405      C1406   1.407       .  A
C1405      H1414   1.083       .  S
C1406      C1407   1.403       .  A
C1407      C1408   1.393       .  A
C1407      H1415   1.083       .  S
C1408      H1416   1.084       .  S
C1417      C1418   1.404       .  A
C1417      C1422   1.405       .  A
C1418      C1419   1.393       .  A
C1418      H1431   1.083       .  S
C1419      C1420   1.398       .  A
C1419      H1432   1.084       .  S
C1420      C1421   1.399       .  A
C1420      C1423   1.432       .  S
C1421      C1422   1.398       .  A
C1421      H1433   1.083       .  S
C1422      H1434   1.083       .  S
C1423      C1424   1.201       .  T
C1424      C1425   1.432       .  S
C1425      C1426   1.399       .  A
C1425      C1430   1.398       .  A
C1426      C1427   1.398       .  A
C1426      H1435   1.083       .  S
C1427      C1428   1.406       .  A
C1427      H1436   1.083       .  S
C1428      C1429   1.404       .  A
C1429      C1430   1.393       .  A
C1429      H1437   1.083       .  S
C1430      H1438   1.084       .  S
C1439      C1440   1.408       .  A
C1439      C1444   1.408       .  A
C1440      C1441   1.405       .  A
C1440      H1453   1.083       .  S
C1441      C1442   1.403       .  A
C1441      H1454   1.083       .  S
C1442      C1443   1.402       .  A
C1442      C1445   1.454       .  S
C1443      C1444   1.403       .  A
C1443      H1455   1.084       .  S
C1444      H1456   1.083       .  S
C1445      C1446   1.214       .  T
C1446      C1447   1.454       .  S
C1447      C1448   1.402       .  A
C1447      C1452   1.403       .  A
C1448      C1449   1.403       .  A
C1448      H1457   1.083       .  S
C1449      C1450   1.408       .  A
C1449      H1458   1.083       .  S
C1450      C1451   1.408       .  A
C1451      C1452   1.405       .  A
C1451      H1459   1.083       .  S
C1452      H1460   1.083       .  S
C1461      C1462   1.409       .  A
C1461      C1466   1.409       .  A
C1462      C1463   1.404       .  A
C1462      H1475   1.083       .  S
C1463      C1464   1.402       .  A
C1463      H1476   1.083       .  S
C1464      C1465   1.406       .  A
C1464      C1467   1.460       .  S
C1465      C1466   1.409       .  A
C1465      H1477   1.083       .  S
C1466      H1478   1.083       .  S
C1467      C1468   1.218       .  T
C1468      C1469   1.460       .  S
C1469      C1470   1.405       .  A
C1469      C1474   1.403       .  A
C1470      C1471   1.409       .  A
C1470      H1479   1.083       .  S
C1471      C1472   1.408       .  A
C1471      H1480   1.083       .  S
C1472      C1473   1.409       .  A
C1473      C1474   1.405       .  A
C1473      H1481   1.083       .  S
C1474      H1482   1.083       .  S
C1483      C1484   1.409       .  A
C1483      C1488   1.407   1_545  A
C1484      C1485   1.410       .  A
C1484      H1497   1.083       .  S
C1485      C1486   1.407   1_545  A
C1485      H1498   1.083       .  S
C1486      C1487   1.399       .  A
C1486      C1489   1.454       .  S
C1487      C1488   1.398       .  A
C1487      H1499   1.084       .  S
C1488      H1500   1.083       .  S
C1489      C1490   1.215       .  T
C1490      C1491   1.454       .  S
C1491      C1492   1.402       .  A
C1491      C1496   1.403       .  A
C1492      C1493   1.403       .  A
C1492      H1501   1.084       .  S
C1493      C1494   1.408       .  A
C1493      H1502   1.083       .  S
C1494      C1495   1.408       .  A
C1495      C1496   1.406       .  A
C1495      H1503   1.083       .  S
C1496      H1504   1.083       .  S
C1505      C1506   1.403       .  A
C1505      C1510   1.407       .  A
C1506      C1507   1.395       .  A
C1506      H1519   1.083       .  S
C1507      C1508   1.401       .  A
C1507      H1520   1.084       .  S
C1508      C1509   1.397       .  A
C1508      C1511   1.433       .  S
C1509      C1510   1.397       .  A
C1509      H1521   1.083       .  S
C1510      H1522   1.083       .  S
C1511      C1512   1.202       .  T
C1512      C1513   1.432       .  S
C1513      C1514   1.401       .  A
C1513      C1518   1.396       .  A
C1514      C1515   1.404       .  A
C1514      H1523   1.083       .  S
C1515      C1516   1.408       .  A
C1515      H1524   1.083       .  S
C1516      C1517   1.403       .  A
C1517      C1518   1.387       .  A
C1517      H1525   1.083       .  S
C1518      H1526   1.084       .  S
C1527      C1528   1.404       .  A
C1527      C1532   1.407       .  A
C1528      C1529   1.391       .  A
C1528      H1541   1.083       .  S
C1529      C1530   1.397       .  A
C1529      H1542   1.084       .  S
C1530      C1531   1.401       .  A
C1530      C1533   1.435       .  S
C1531      C1532   1.402       .  A
C1531      H1543   1.083       .  S
C1532      H1544   1.083       .  S
C1533      C1534   1.203       .  T
C1534      C1535   1.435       .  S
C1535      C1536   1.400       .  A
C1535      C1540   1.398       .  A
C1536      C1537   1.402       .  A
C1536      H1545   1.083       .  S
C1537      C1538   1.407       .  A
C1537      H1546   1.083       .  S
C1538      C1539   1.404       .  A
C1539      C1540   1.392       .  A
C1539      H1547   1.083       .  S
C1540      H1548   1.084       .  S
C1549      C1550   1.407       .  A
C1549      C1554   1.405       .  A
C1550      C1551   1.400       .  A
C1550      H1563   1.083       .  S
C1551      C1552   1.400       .  A
C1551      H1564   1.083       .  S
C1552      C1553   1.400       .  A
C1552      C1555   1.439       .  S
C1553      C1554   1.396       .  A
C1553      H1565   1.084       .  S
C1554      H1566   1.083       .  S
C1555      C1556   1.206       .  T
C1556      C1557   1.439       .  S
C1557      C1558   1.401       .  A
C1557      C1562   1.399       .  A
C1558      C1559   1.402       .  A
C1558      H1567   1.083       .  S
C1559      C1560   1.407       .  A
C1559      H1568   1.083       .  S
C1560      C1561   1.405       .  A
C1561      C1562   1.395       .  A
C1561      H1569   1.083       .  S
C1562      H1570   1.084       .  S
C1571      C1572   1.403       .  A
C1571      C1576   1.406       .  A
C1572      C1573   1.394       .  A
C1572      H1585   1.083       .  S
C1573      C1574   1.399       .  A
C1573      H1586   1.084       .  S
C1574      C1575   1.398       .  A
C1574      C1577   1.431       .  S
C1575      C1576   1.396       .  A
C1575      H1587   1.083       .  S
C1576      H1588   1.083       .  S
C1577      C1578   1.201       .  T
C1578      C1579   1.432       .  S
C1579      C1580   1.399       .  A
C1579      C1584   1.399       .  A
C1580      C1581   1.394       .  A
C1580      H1589   1.084       .  S
C1581      C1582   1.404       .  A
C1581      H1590   1.083       .  S
C1582      C1583   1.404       .  A
C1583      C1584   1.398       .  A
C1583      H1591   1.083       .  S
C1584      H1592   1.083       .  S
C1593      C1594   1.408       .  A
C1593      C1598   1.408       .  A
C1594      C1595   1.409       .  A
C1594      H1607   1.083       .  S
C1595      C1596   1.406       .  A
C1595      H1608   1.083       .  S
C1596      C1597   1.400       .  A
C1596      C1599   1.456       .  S
C1597      C1598   1.401       .  A
C1597      H1609   1.084       .  S
C1598      H1610   1.083       .  S
C1599      C1600   1.216       .  T
C1600      C1601   1.456       .  S
C1601      C1602   1.403       .  A
C1601      C1606   1.403       .  A
C1602      C1603   1.405       .  A
C1602      H1611   1.083       .  S
C1603      C1604   1.409       .  A
C1603      H1612   1.083       .  S
C1604      C1605   1.407       .  A
C1605      C1606   1.406       .  A
C1605      H1613   1.083       .  S
C1606      H1614   1.083       .  S
C1615      C1616   1.408       .  A
C1615      C1620   1.408       .  A
C1616      C1617   1.409       .  A
C1616      H1629   1.083       .  S
C1617      C1618   1.405       .  A
C1617      H1630   1.083       .  S
C1618      C1619   1.401       .  A
C1618      C1621   1.456       .  S
C1619      C1620   1.401       .  A
C1619      H1631   1.083       .  S
C1620      H1632   1.083       .  S
C1621      C1622   1.216       .  T
C1622      C1623   1.456       .  S
C1623      C1624   1.406       .  A
C1623      C1628   1.400       .  A
C1624      C1625   1.410       .  A
C1624      H1633   1.083       .  S
C1625      C1626   1.409       .  A
C1625      H1634   1.083       .  S
C1626      C1627   1.408       .  A
C1627      C1628   1.400       .  A
C1627      H1635   1.083       .  S
C1628      H1636   1.084       .  S
C1637      C1638   1.408       .  A
C1637      C1642   1.407       .  A
C1638      C1639   1.408       .  A
C1638      H1651   1.083       .  S
C1639      C1640   1.405       .  A
C1639      H1652   1.083       .  S
C1640      C1641   1.399       .  A
C1640      C1643   1.451       .  S
C1641      C1642   1.398       .  A
C1641      H1653   1.084       .  S
C1642      H1654   1.083       .  S
C1643      C1644   1.213       .  T
C1644      C1645   1.451       .  S
C1645      C1646   1.401       .  A
C1645      C1650   1.403       .  A
C1646      C1647   1.401       .  A
C1646      H1655   1.084       .  S
C1647      C1648   1.408       .  A
C1647      H1656   1.083       .  S
C1648      C1649   1.408       .  A
C1649      C1650   1.406       .  A
C1649      H1657   1.083       .  S
C1650      H1658   1.083       .  S
C1659      C1660   1.407       .  A
C1659      C1664   1.407       .  A
C1660      C1661   1.400   1_545  A
C1660      H1673   1.083   1_545  S
C1661      C1662   1.401       .  A
C1661      H1674   1.084       .  S
C1662      C1663   1.402   1_565  A
C1662      C1665   1.448       .  S
C1663      C1664   1.403       .  A
C1663      H1675   1.083       .  S
C1664      H1676   1.083       .  S
C1665      C1666   1.211       .  T
C1666      C1667   1.448       .  S
C1667      C1668   1.403       .  A
C1667      C1672   1.400       .  A
C1668      C1669   1.405       .  A
C1668      H1677   1.083       .  S
C1669      C1670   1.408       .  A
C1669      H1678   1.083       .  S
C1670      C1671   1.407       .  A
C1671      C1672   1.399       .  A
C1671      H1679   1.083       .  S
C1672      H1680   1.084       .  S
