geometry optimzed in LAMMPS
_audit_creation_date              2020-11-30 
_audit_creation_method            'lammps2cif' 
_symmetry_space_group_name_H-M    'P1' 
_symmetry_Int_Tables_number       1 
_symmetry_cell_setting            triclinic 
loop_ 
_symmetry_equiv_pos_as_xyz 
  x,y,z 
_cell_length_a                    66.27593099 
_cell_length_b                    34.54584985608085 
_cell_length_c                    35.80582379836439 
_cell_angle_alpha                 89.9769367694183 
_cell_angle_beta                  89.17890850158962 
_cell_angle_gamma                 88.96763068392167 
loop_ 
_atom_site_label 
_atom_site_type_symbol 
_atom_site_fract_x 
_atom_site_fract_y 
_atom_site_fract_z 
_atom_site_charge 
C1          C  0.80195947  0.51367577  0.27861079     0.86200
C2          C  0.78775253  0.49135130  0.30503425    -0.54000
C3          C  0.77421029  0.46887049  0.28731961     0.09100
C4          C  0.77582310  0.47057981  0.24472095     0.20100
C5          C  0.81165942  0.48261795  0.25281586    -0.54800
C6          C  0.79797306  0.45979954  0.23499727     0.09200
C7          C  0.78718286  0.53628301  0.25348919    -0.54300
C8          C  0.77362928  0.51386685  0.23558685     0.09800
H9          H  0.78717412  0.49497777  0.33512312     0.14300
H10         H  0.76431131  0.45286826  0.23095784     0.00100
H11         H  0.82787650  0.47895227  0.24941959     0.14600
H12         H  0.78720359  0.56750396  0.25041081     0.14400
C13         C  0.80220158  0.52800623  0.71943105     0.86200
C14         C  0.78793620  0.54925117  0.74731744    -0.54000
C15         C  0.77428147  0.52595348  0.76485630     0.09100
C16         C  0.77626604  0.48312892  0.75313248     0.20100
C17         C  0.81205733  0.49515376  0.74241191    -0.54800
C18         C  0.79847831  0.47159529  0.76023540     0.09200
C19         C  0.78748821  0.50773980  0.69316381    -0.54300
C20         C  0.77424243  0.48398764  0.71060325     0.09800
H21         H  0.78803599  0.58017309  0.75214677     0.14300
H22         H  0.76500100  0.46431713  0.76690327     0.00100
H23         H  0.82828404  0.49088994  0.74414940     0.14600
H24         H  0.78709088  0.51242694  0.66318554     0.14400
Fe25       Fe  0.82508226  0.77361124  0.48600112     1.65800
Fe26       Fe  0.84920945  0.85872004  0.49565192     1.73200
Fe27       Fe  0.87635357  0.77433594  0.49088556     1.54400
O28         O  0.86732331  0.74139299  0.53600583    -0.82000
O29         O  0.87329564  0.86468675  0.45891499    -0.80300
O30         O  0.83538936  0.72945185  0.52076513    -0.84500
O31         O  0.83560918  0.74500596  0.43919665    -0.79300
O32         O  0.89012882  0.81189412  0.52766919    -0.81100
O33         O  0.83019285  0.86644768  0.45154771    -0.83800
C34         C  0.85169028  0.72509233  0.43526770     0.96900
C35         C  0.85100795  0.72305781  0.54029655     1.04400
O36         O  0.85016033  0.80235615  0.49083534    -1.12800
O37         O  0.82521264  0.85859141  0.53315449    -0.75300
O38         O  0.81165430  0.79996415  0.53210550    -0.78700
O39         O  0.86728364  0.73089071  0.45454978    -0.79400
C40         C  0.81261390  0.83406427  0.54517221     0.95800
O41         O  0.81153380  0.81362522  0.45081586    -0.77400
O42         O  0.86786204  0.85887946  0.54045253    -0.82600
C43         C  0.88563861  0.84294325  0.44065063     0.98500
C44         C  0.88462138  0.84193793  0.54574904     1.04400
O45         O  0.88698186  0.80649474  0.44600072    -0.78200
C46         C  0.81541322  0.84759580  0.43961474     1.02700
Fe47       Fe  0.80694757  0.19517260  0.99192781     1.65800
Fe48       Fe  0.83940169  0.11857975  0.98782469     1.73200
Fe49       Fe  0.85764624  0.21097609  0.99011172     1.54400
O50         O  0.84416017  0.24937623  0.95285478    -0.82000
O51         O  0.85741235  0.12105469  0.03347175    -0.80300
O52         O  0.81189151  0.23292224  0.94787378    -0.84500
O53         O  0.81280511  0.23772260  0.03050145    -0.79300
O54         O  0.87229941  0.18411012  0.94505858    -0.81100
O55         O  0.81533443  0.10456498  0.02305164    -0.83800
C56         C  0.82823063  0.25206992  0.04537125     0.96900
C57         C  0.82683424  0.25352260  0.93831505     1.04400
O58         O  0.83473741  0.17508422  0.98973251    -1.12800
O59         O  0.82161729  0.11160750  0.94158069    -0.75300
O60         O  0.79713881  0.15489291  0.95391366    -0.78700
O61         O  0.84610162  0.24279857  0.03506249    -0.79400
C62         C  0.80425897  0.12618277  0.93545270     0.95800
O63         O  0.79938685  0.16001117  0.03649851    -0.77400
O64         O  0.86458150  0.12223698  0.95347912    -0.82600
C65         C  0.87157520  0.14341300  0.04232042     0.98500
C66         C  0.87521707  0.14831821  0.93850175     1.04400
O67         O  0.87393946  0.17663713  0.02752745    -0.78200
C68         C  0.80250154  0.12415033  0.04208868     1.02700
C69         C  0.97774374  0.96979390  0.72518128     0.86200
C70         C  0.99212891  0.99683910  0.70458419    -0.54000
C71         C  0.00348673  0.01887069  0.72738053     0.09100
C72         C  0.99955714  0.01206216  0.76932526     0.20100
C73         C  0.99148866  0.94601022  0.75146941    -0.54800
C74         C  0.00301143  0.96787474  0.77480172     0.09200
C75         C  0.96536412  0.99621676  0.75156963    -0.54300
C76         C  0.97660793  0.01869273  0.77415713     0.09800
H77         H  0.99343141  0.99812798  0.67431139     0.14300
H78         H  0.00852848  0.03075592  0.78772623     0.00100
H79         H  0.99242894  0.91477420  0.75145350     0.14600
H80         H  0.94896357  0.99745878  0.75207658     0.14400
Fe81       Fe  0.17016192  0.78621336  0.99280516     1.65800
Fe82       Fe  0.13882738  0.86512336  0.00396919     1.73200
Fe83       Fe  0.11873615  0.77433047  0.99597244     1.54400
O84         O  0.13044093  0.73994484  0.95213284    -0.82000
O85         O  0.11816395  0.85982663  0.04680976    -0.80300
O86         O  0.16326924  0.75189222  0.94789883    -0.84500
O87         O  0.16417254  0.74179166  0.02966665    -0.79300
O88         O  0.10395230  0.80937412  0.95658399    -0.81100
O89         O  0.16072472  0.86930567  0.04416237    -0.83800
C90         C  0.14879000  0.72576735  0.04400641     0.96900
C91         C  0.14772793  0.73473449  0.93670587     1.04400
O92         O  0.14254046  0.80851841  0.99753524    -1.12800
O93         O  0.15931019  0.87866176  0.96236570    -0.75300
O94         O  0.17976134  0.82736745  0.95509201    -0.78700
O95         O  0.13080349  0.73594977  0.03566417    -0.79400
C96         C  0.17441176  0.86175936  0.94703694     0.95800
O97         O  0.18109031  0.81786758  0.03708156    -0.77400
O98         O  0.11628709  0.86843673  0.96458981    -0.82600
C99         C  0.10494266  0.83546271  0.05590139     0.98500
C100        C  0.10424183  0.84548814  0.94889902     1.04400
O101        O  0.10330775  0.80314215  0.03929584    -0.78200
C102        C  0.17617726  0.84945486  0.05325141     1.02700
Fe103      Fe  0.15495610  0.21377720  0.49474052     1.65800
Fe104      Fe  0.12939044  0.13016463  0.49391102     1.73200
Fe105      Fe  0.10364261  0.21707424  0.49369047     1.54400
O106        O  0.11407913  0.25742772  0.53231359    -0.82000
O107        O  0.10973650  0.12797140  0.45028455    -0.80300
O108        O  0.14649056  0.24239764  0.54305269    -0.84500
O109        O  0.14497599  0.26009755  0.46326510    -0.79300
O110        O  0.09165479  0.18576720  0.53805452    -0.81100
O111        O  0.15281816  0.12653779  0.45515454    -0.83800
C112        C  0.12920794  0.26970541  0.44574316     0.96900
C113        C  0.13033354  0.26140370  0.55049246     1.04400
O114        O  0.12921313  0.18693016  0.49398025    -1.12800
O115        O  0.14899597  0.12502294  0.53804080    -0.75300
O116        O  0.16992005  0.17291693  0.52643891    -0.78700
O117        O  0.11276546  0.25177863  0.44938152    -0.79400
C118        C  0.16551612  0.14187705  0.54318186     0.95800
O119        O  0.16481674  0.18598684  0.44666047    -0.77400
O120        O  0.10628270  0.12739486  0.53249988    -0.82600
C121        C  0.09464850  0.14825813  0.44019642     0.98500
C122        C  0.09382102  0.15067347  0.54824246     1.04400
O123        O  0.09017837  0.18087453  0.45500027    -0.78200
C124        C  0.16416091  0.15025302  0.43807122     1.02700
C125        C  0.18238532  0.45999732  0.72121535     0.86200
C126        C  0.19626794  0.44183956  0.75088245    -0.54000
C127        C  0.20881054  0.46723445  0.76768285     0.09100
C128        C  0.20648827  0.50895324  0.75305427     0.20100
C129        C  0.17133678  0.49374445  0.74163704    -0.54800
C130        C  0.18389779  0.51949824  0.75851618     0.09200
C131        C  0.19736426  0.47957462  0.69410603    -0.54300
C132        C  0.20975300  0.50536594  0.71066273     0.09800
H133        H  0.19741563  0.41115698  0.75664225     0.14300
H134        H  0.21687606  0.52936360  0.76648333     0.00100
H135        H  0.15500953  0.49682464  0.74250915     0.14600
H136        H  0.19814214  0.47359076  0.66433427     0.14400
C137        C  0.18260457  0.48125409  0.28988170     0.86200
C138        C  0.19576752  0.50879529  0.31266944    -0.54000
C139        C  0.20895975  0.52959584  0.29165347     0.09100
C140        C  0.20791423  0.52151826  0.24957475     0.20100
C141        C  0.17238234  0.50719813  0.26054175    -0.54800
C142        C  0.18550811  0.52852093  0.23925411     0.09200
C143        C  0.19821640  0.45668289  0.26766374    -0.54300
C144        C  0.21136785  0.47741983  0.24621281     0.09800
H145        H  0.19614453  0.51013999  0.34285541     0.14300
H146        H  0.21868970  0.53904670  0.23310074     0.00100
H147        H  0.15617158  0.50786952  0.25663761     0.14600
H148        H  0.19899111  0.42533504  0.26957178     0.14400
C149        C  0.97609038  0.02439063  0.20889187     0.86200
C150        C  0.96433650  0.00075498  0.23767518    -0.54000
C151        C  0.97596108  0.97906719  0.26100548     0.09100
C152        C  0.99879342  0.98286004  0.25345884     0.20100
C153        C  0.99043781  0.04853227  0.23261177    -0.54800
C154        C  0.00219693  0.02695455  0.25636989     0.09200
C155        C  0.98989632  0.99502823  0.18864244    -0.54300
C156        C  0.00184605  0.97328687  0.21154066     0.09800
H157        H  0.94795945  0.00184707  0.24003353     0.14300
H158        H  0.00814240  0.96484469  0.27244268     0.00100
H159        H  0.99127285  0.07972901  0.23148688     0.14600
H160        H  0.99043885  0.99224265  0.15841425     0.14400
Fe161      Fe  0.31443128  0.72849463  0.50986097     1.65800
Fe162      Fe  0.34453568  0.64840858  0.50239466     1.73200
Fe163      Fe  0.36603236  0.73826561  0.50430940     1.54400
O164        O  0.35438975  0.77456552  0.46249361    -0.82000
O165        O  0.36748490  0.64671218  0.54015139    -0.80300
O166        O  0.32128641  0.77296439  0.47392663    -0.84500
O167        O  0.32225377  0.76110033  0.55494560    -0.79300
O168        O  0.38147883  0.70515614  0.46313548    -0.81100
O169        O  0.32469864  0.63801608  0.54571791    -0.83800
C170        C  0.33773686  0.78000276  0.56350128     0.96900
C171        C  0.33644253  0.78707608  0.45707678     1.04400
O172        O  0.34174210  0.70510565  0.50537593    -1.12800
O173        O  0.32190648  0.64330092  0.46381408    -0.75300
O174        O  0.30345831  0.69781082  0.46499859    -0.78700
O175        O  0.35454060  0.77608382  0.54592586    -0.79400
C176        C  0.30737975  0.66420919  0.45203176     0.95800
O177        O  0.30326721  0.68800556  0.54709953    -0.77400
O178        O  0.36500106  0.64968530  0.45928725    -0.82600
C179        C  0.37987492  0.66974036  0.55458344     0.98500
C180        C  0.37945138  0.67121517  0.44984104     1.04400
O181        O  0.38037320  0.70557892  0.54595010    -0.78200
C182        C  0.30886673  0.65473667  0.55822903     1.02700
Fe183      Fe  0.31935172  0.29943280  0.00574430     1.65800
Fe184      Fe  0.34463691  0.38375426  0.00477801     1.73200
Fe185      Fe  0.37109357  0.29699967  0.00121900     1.54400
O186        O  0.36282302  0.25759788  0.04223943    -0.82000
O187        O  0.36828919  0.38939077  0.96729114    -0.80300
O188        O  0.32926140  0.25740317  0.04198827    -0.84500
O189        O  0.32745427  0.26653262  0.96052911    -0.79300
O190        O  0.38355208  0.33064828  0.04304330    -0.81100
O191        O  0.32490907  0.38840903  0.96065558    -0.83800
C192        C  0.34366160  0.25271201  0.94630909     0.96900
C193        C  0.34603716  0.24475944  0.05365488     1.04400
O194        O  0.34515529  0.32663548  0.00380659    -1.12800
O195        O  0.32134857  0.38797334  0.04406947    -0.75300
O196        O  0.30869273  0.32938598  0.05150675    -0.78700
O197        O  0.36109406  0.26010830  0.95891089    -0.79400
C198        C  0.30985865  0.36453160  0.06099081     0.95800
O199        O  0.30538693  0.33746998  0.96944771    -0.77400
O200        O  0.36429658  0.38432510  0.04808153    -0.82600
C201        C  0.38212784  0.36813312  0.95292470     0.98500
C202        C  0.37910938  0.36319958  0.05813598     1.04400
O203        O  0.38381157  0.33225352  0.96036634    -0.78200
C204        C  0.30947967  0.36891039  0.95285409     1.02700
C205        C  0.29367958  0.05690510  0.76771321     0.86200
C206        C  0.27886995  0.03825994  0.79533565    -0.54000
C207        C  0.26752227  0.00978273  0.78049335     0.09100
C208        C  0.27191998  0.00241711  0.73876324     0.20100
C209        C  0.30628171  0.02290495  0.75109290    -0.54800
C210        C  0.29492704  0.99431966  0.73561091     0.09200
C211        C  0.28062232  0.07035610  0.73471815    -0.54300
C212        C  0.26896010  0.04216469  0.72013651     0.09800
H213        H  0.27761318  0.04682589  0.82448556     0.14300
H214        H  0.26243603  0.97976071  0.72630569     0.00100
H215        H  0.32265619  0.02205410  0.75061010     0.14600
H216        H  0.28035340  0.09959060  0.72365726     0.14400
C217        C  0.29636147  0.03611302  0.21879748     0.86200
C218        C  0.27986776  0.05820233  0.24122926    -0.54000
C219        C  0.26795022  0.03561014  0.26337016     0.09100
C220        C  0.27310068  0.99218433  0.25971813     0.20100
C221        C  0.30781708  0.01188777  0.24797933    -0.54800
C222        C  0.29573003  0.98862029  0.26946114     0.09200
C223        C  0.28431989  0.00647764  0.19634694    -0.54300
C224        C  0.27213858  0.98377476  0.21770528     0.09800
H225        H  0.27762699  0.08930917  0.23909220     0.14300
H226        H  0.26319669  0.97304265  0.27634334     0.00100
H227        H  0.32401945  0.01351459  0.25147592     0.14600
H228        H  0.28393564  0.00514959  0.16613072     0.14400
C229        C  0.47991333  0.54243881  0.72739014     0.86200
C230        C  0.46782782  0.52129045  0.75748801    -0.54000
C231        C  0.47907623  0.49922338  0.78119879     0.09100
C232        C  0.50197489  0.50005130  0.77246117     0.20100
C233        C  0.49547492  0.56563879  0.74943291    -0.54800
C234        C  0.50697669  0.54368484  0.77335226     0.09200
C235        C  0.49255921  0.51082575  0.70769992    -0.54300
C236        C  0.50414985  0.48864786  0.73082653     0.09800
H237        H  0.45149890  0.52396311  0.76010816     0.14300
H238        H  0.51103030  0.48164389  0.79157818     0.00100
H239        H  0.49765483  0.59641041  0.74634201     0.14600
H240        H  0.49277907  0.50705825  0.67756248     0.14400
C241        C  0.68106385  0.00872446  0.71113219     0.86200
C242        C  0.69445072  0.98090718  0.68735917    -0.54000
C243        C  0.70735792  0.95838900  0.70754475     0.09100
C244        C  0.70580584  0.96510409  0.74987726     0.20100
C245        C  0.67038492  0.98248642  0.73975254    -0.54800
C246        C  0.68330407  0.95961343  0.76024281     0.09200
C247        C  0.69647204  0.03114141  0.73412177    -0.54300
C248        C  0.70916024  0.00857756  0.75492533     0.09800
H249        H  0.69524181  0.98073610  0.65713196     0.14300
H250        H  0.71637366  0.94634299  0.76580182     0.00100
H251        H  0.65413951  0.98293490  0.74409338     0.14600
H252        H  0.69729565  0.06250102  0.73382755     0.14400
Fe253      Fe  0.66182990  0.28325689  0.50437225     1.65800
Fe254      Fe  0.63474548  0.36809415  0.50737983     1.73200
Fe255      Fe  0.60993963  0.28250937  0.50536809     1.54400
O256        O  0.61997278  0.24299144  0.46552098    -0.82000
O257        O  0.61597973  0.36916320  0.55371413    -0.80300
O258        O  0.65344054  0.24815175  0.46089398    -0.84500
O259        O  0.65271019  0.24203306  0.54256641    -0.79300
O260        O  0.59799603  0.31584465  0.46226439    -0.81100
O261        O  0.65876377  0.37232852  0.54200134    -0.83800
C262        C  0.63611498  0.23042664  0.55632386     0.96900
C263        C  0.63692838  0.23354225  0.45106140     1.04400
O264        O  0.63552753  0.31109317  0.50583065    -1.12800
O265        O  0.65365288  0.37226488  0.46149336    -0.75300
O266        O  0.67407581  0.32030562  0.46503982    -0.78700
O267        O  0.61902653  0.24497079  0.54770615    -0.79400
C268        C  0.66903373  0.35261351  0.45064547     0.95800
O269        O  0.67398902  0.31499074  0.54785411    -0.77400
O270        O  0.61056913  0.37398298  0.47262078    -0.82600
C271        C  0.60065021  0.34938666  0.56239549     0.98500
C272        C  0.59859794  0.35198931  0.45595434     1.04400
O273        O  0.59625705  0.31830498  0.54547062    -0.78200
C274        C  0.67224946  0.35070580  0.55596851     1.02700
C275        C  0.68104188  0.02361268  0.28029629     0.86200
C276        C  0.69379781  0.04088801  0.24823313    -0.54000
C277        C  0.70667537  0.01504081  0.23083875     0.09100
C278        C  0.70523900  0.97366083  0.24646704     0.20100
C279        C  0.67011584  0.98958388  0.26252385    -0.54800
C280        C  0.68268366  0.96346028  0.24455884     0.09200
C281        C  0.69706921  0.00493362  0.30566152    -0.54300
C282        C  0.70952706  0.97872765  0.28816153     0.09800
H283        H  0.69391901  0.07137966  0.24127227     0.14300
H284        H  0.71565338  0.95266143  0.23228178     0.00100
H285        H  0.65382900  0.98674400  0.26368896     0.14600
H286        H  0.69879664  0.01237735  0.33490121     0.14400
Fe287      Fe  0.67041175  0.70349664  0.00834160     1.65800
Fe288      Fe  0.63953737  0.62561473  0.00657385     1.73200
Fe289      Fe  0.61913286  0.71799821  0.00635712     1.54400
O290        O  0.63073834  0.75326191  0.04835972    -0.82000
O291        O  0.61915407  0.62854116  0.96417645    -0.80300
O292        O  0.66340822  0.73753804  0.05373825    -0.84500
O293        O  0.66433490  0.74847607  0.97219181    -0.79300
O294        O  0.60367205  0.68740638  0.04774669    -0.81100
O295        O  0.66215522  0.61665785  0.96667743    -0.83800
C296        C  0.64902876  0.76369346  0.95683254     0.96900
C297        C  0.64772269  0.75622093  0.06441933     1.04400
O298        O  0.64296929  0.68237025  0.00709425    -1.12800
O299        O  0.65947373  0.61451572  0.04864325    -0.75300
O300        O  0.68114734  0.66277289  0.04536700    -0.78700
O301        O  0.63117772  0.75315112  0.96455537    -0.79400
C302        C  0.67533929  0.63095265  0.05885275     0.95800
O303        O  0.67996503  0.67086330  0.96289471    -0.77400
O304        O  0.61681347  0.62751182  0.04691912    -0.82600
C305        C  0.60649816  0.65297274  0.95156120     0.98500
C306        C  0.60434768  0.65271395  0.05975388     1.04400
O307        O  0.60470730  0.68721037  0.96452872    -0.78200
C308        C  0.67608095  0.63680608  0.95210162     1.02700
C309        C  0.47699198  0.48493988  0.23153673     0.86200
C310        C  0.49026423  0.51309871  0.20958087    -0.54000
C311        C  0.50266858  0.53462067  0.23099859     0.09100
C312        C  0.50047715  0.52632121  0.27332322     0.20100
C313        C  0.49190607  0.46065260  0.25483476    -0.54800
C314        C  0.50432962  0.48201574  0.27674980     0.09200
C315        C  0.46567591  0.50987220  0.26053964    -0.54300
C316        C  0.47765479  0.53173865  0.28230274     0.09800
H317        H  0.49037221  0.51478736  0.17926854     0.14300
H318        H  0.51035630  0.54438143  0.29066116     0.00100
H319        H  0.49217693  0.42939790  0.25566523     0.14600
H320        H  0.44934332  0.50998432  0.26388157     0.14400
C321        C  0.58776106  0.57026596  0.16878239    -0.18100
C322        C  0.57363326  0.55481123  0.19389119    -0.20300
C323        C  0.55327842  0.56669855  0.19289109     0.20400
C324        C  0.54723019  0.59521770  0.16683172    -0.03200
C325        C  0.56158593  0.61129655  0.14183569    -0.06300
C326        C  0.58186931  0.59820885  0.14240508     0.20600
C327        C  0.55552796  0.63960904  0.11560112     0.18800
C328        C  0.53518250  0.65165447  0.11473989    -0.17700
C329        C  0.52090725  0.63517094  0.13893759    -0.20000
C330        C  0.52673076  0.60670097  0.16485205     0.20300
C331        C  0.51233634  0.58843239  0.18776457    -0.33000
C332        C  0.51819506  0.55937022  0.21316980     0.01000
C333        C  0.53875117  0.54941241  0.21633375    -0.24300
C334        C  0.59578585  0.61253887  0.11602096    -0.28900
C335        C  0.58987103  0.64046667  0.08947231     0.06700
C336        C  0.56978087  0.65450944  0.09002614    -0.27600
H337        H  0.60329131  0.55999186  0.16971400     0.11400
H338        H  0.57856205  0.53292161  0.21359794     0.12500
H339        H  0.53021966  0.67328629  0.09480349     0.11600
H340        H  0.50524107  0.64438699  0.13706854     0.10800
H341        H  0.49645199  0.59575835  0.18496091     0.16200
H342        H  0.54323287  0.52642031  0.23527922     0.12100
H343        H  0.61124781  0.60171026  0.11591186     0.15000
H344        H  0.56504727  0.67572801  0.06947751     0.14800
C345        C  0.68517564  0.79881984  0.17496774    -0.18100
C346        C  0.69030257  0.82808422  0.19996963    -0.20300
C347        C  0.67973189  0.86368236  0.20012289     0.20400
C348        C  0.66332363  0.86924123  0.17588342    -0.03200
C349        C  0.65820010  0.83976303  0.15052631    -0.06300
C350        C  0.66943085  0.80469570  0.14962446     0.20600
C351        C  0.64230736  0.84594679  0.12520827     0.18800
C352        C  0.63135679  0.88108604  0.12622304    -0.17700
C353        C  0.63636564  0.91019041  0.15145309    -0.20000
C354        C  0.65247273  0.90476007  0.17604058     0.20300
C355        C  0.65833016  0.93470174  0.19983582    -0.33000
C356        C  0.67521716  0.93002374  0.22286275     0.01000
C357        C  0.68566072  0.89421881  0.22318442    -0.24300
C358        C  0.66521369  0.77676584  0.12249938    -0.28900
C359        C  0.64989378  0.78331909  0.09619423     0.06700
C360        C  0.63812827  0.81752642  0.09844538    -0.27600
H361        H  0.69384454  0.77191220  0.17485344     0.11400
H362        H  0.70280996  0.82316836  0.21865314     0.12500
H363        H  0.61911699  0.88634482  0.10702422     0.11600
H364        H  0.62787746  0.93728200  0.15122472     0.10800
H365        H  0.65032643  0.96232399  0.19910420     0.16200
H366        H  0.69858245  0.89024141  0.24091585     0.12100
H367        H  0.67425858  0.75030459  0.12116600     0.15000
H368        H  0.62640323  0.82288918  0.07817956     0.14800
C369        C  0.54307078  0.48190519  0.39413793    -0.18100
C370        C  0.55622603  0.46362564  0.41902712    -0.20300
C371        C  0.56413100  0.42649056  0.41124049     0.20400
C372        C  0.55886449  0.40760367  0.37798261    -0.03200
C373        C  0.54584132  0.42636477  0.35254884    -0.06300
C374        C  0.53780011  0.46357794  0.36080442     0.20600
C375        C  0.54080862  0.40783220  0.31899913     0.18800
C376        C  0.54874932  0.37066873  0.31121405    -0.17700
C377        C  0.56142791  0.35183778  0.33666555    -0.20000
C378        C  0.56655130  0.36997484  0.37019620     0.20300
C379        C  0.57922257  0.35127692  0.39604029    -0.33000
C380        C  0.58467540  0.37024577  0.42900368     0.01000
C381        C  0.57716423  0.40790724  0.43621924    -0.24300
C382        C  0.52448040  0.48168876  0.33583470    -0.28900
C383        C  0.51928125  0.46344611  0.30231394     0.06700
C384        C  0.52782717  0.42665318  0.29393754    -0.27600
H385        H  0.53704898  0.51044802  0.40093425     0.11400
H386        H  0.56012192  0.47845637  0.44451731     0.12500
H387        H  0.54502009  0.35601287  0.28553970     0.11600
H388        H  0.56723926  0.32308332  0.33009947     0.10800
H389        H  0.58516798  0.32243137  0.39020852     0.16200
H390        H  0.58126462  0.42258727  0.46170744     0.12100
H391        H  0.51782284  0.50958187  0.34308547     0.15000
H392        H  0.52442531  0.41246323  0.26787394     0.14800
C393        C  0.64949273  0.06487029  0.40020689    -0.18100
C394        C  0.64408409  0.09493415  0.42473223    -0.20300
C395        C  0.64227014  0.13311845  0.41166078     0.20400
C396        C  0.64516473  0.14095787  0.37329690    -0.03200
C397        C  0.65067507  0.11059927  0.34860005    -0.06300
C398        C  0.65325865  0.07255854  0.36226696     0.20600
C399        C  0.65442205  0.11859636  0.31056251     0.18800
C400        C  0.65152422  0.15646017  0.29711571    -0.17700
C401        C  0.64618999  0.18663414  0.32161718    -0.20000
C402        C  0.64349046  0.17936809  0.35990743     0.20300
C403        C  0.63995216  0.20986948  0.38527581    -0.33000
C404        C  0.63781590  0.20210412  0.42357051     0.01000
C405        C  0.63842642  0.16378315  0.43648005    -0.24300
C406        C  0.66083344  0.04341926  0.33835299    -0.28900
C407        C  0.66714569  0.05223236  0.30155791     0.06700
C408        C  0.66221174  0.08921847  0.28713708    -0.27600
H409        H  0.65139383  0.03581330  0.41116752     0.11400
H410        H  0.64184422  0.08847535  0.45410443     0.12500
H411        H  0.65415384  0.16302953  0.26787657     0.11600
H412        H  0.64473135  0.21581731  0.31077554     0.10800
H413        H  0.63946838  0.23958151  0.37551750     0.16200
H414        H  0.63679757  0.15807207  0.46611875     0.12100
H415        H  0.66341299  0.01454032  0.34935050     0.15000
H416        H  0.66508829  0.09598960  0.25811106     0.14800
C417        C  0.64914103  0.09112742  0.56879201    -0.18100
C418        C  0.65462850  0.05911895  0.59054372    -0.20300
C419        C  0.65590966  0.06251677  0.62949599     0.20400
C420        C  0.65057340  0.09794482  0.64687326    -0.03200
C421        C  0.64492260  0.13029922  0.62492124    -0.06300
C422        C  0.64468391  0.12698236  0.58566364     0.20600
C423        C  0.64040150  0.16632720  0.64210612     0.18800
C424        C  0.64076712  0.16907672  0.68122075    -0.17700
C425        C  0.64629216  0.13692031  0.70297103    -0.20000
C426        C  0.65165318  0.10145179  0.68600401     0.20300
C427        C  0.65930072  0.07027800  0.70715929    -0.33000
C428        C  0.66702455  0.03639494  0.68951698     0.01000
C429        C  0.66361059  0.03179958  0.65096073    -0.24300
C430        C  0.64077024  0.15988386  0.56387707    -0.28900
C431        C  0.63700907  0.19606315  0.58064971     0.06700
C432        C  0.63638462  0.19913022  0.61977106    -0.27600
H433        H  0.64888150  0.08808354  0.53868143     0.11400
H434        H  0.65857359  0.03205431  0.57675556     0.12500
H435        H  0.63725426  0.19635980  0.69496324     0.11600
H436        H  0.64699582  0.14015793  0.73301708     0.10800
H437        H  0.66088064  0.07368781  0.73706396     0.16200
H438        H  0.66759889  0.00502668  0.63693071     0.12100
H439        H  0.64135240  0.15771184  0.53368882     0.15000
H440        H  0.63363860  0.22717134  0.63263099     0.14800
C441        C  0.69133523  0.86974062  0.90943704    -0.18100
C442        C  0.69600983  0.89734561  0.88222036    -0.20300
C443        C  0.68357470  0.90263385  0.85116945     0.20400
C444        C  0.66588529  0.88079443  0.84812966    -0.03200
C445        C  0.66108248  0.85303184  0.87579486    -0.06300
C446        C  0.67408188  0.84706918  0.90618718     0.20600
C447        C  0.64351113  0.83078282  0.87267456     0.18800
C448        C  0.63075838  0.83703537  0.84217738    -0.17700
C449        C  0.63557523  0.86440384  0.81466422    -0.20000
C450        C  0.65320835  0.88617612  0.81714062     0.20300
C451        C  0.65862167  0.91258742  0.78887167    -0.33000
C452        C  0.67662875  0.93351403  0.79112412     0.01000
C453        C  0.68875130  0.92885499  0.82282369    -0.24300
C454        C  0.66981145  0.81813722  0.93249016    -0.28900
C455        C  0.65253937  0.79523719  0.92934331     0.06700
C456        C  0.63922512  0.80227203  0.89970090    -0.27600
H457        H  0.70136984  0.86577434  0.93280945     0.11400
H458        H  0.70956218  0.91411215  0.88513586     0.12500
H459        H  0.61717662  0.82037138  0.83932455     0.11600
H460        H  0.62559874  0.86822723  0.79118469     0.10800
H461        H  0.64915505  0.91593304  0.76461216     0.16200
H462        H  0.70232243  0.94561755  0.82548936     0.12100
H463        H  0.68001416  0.81336606  0.95551515     0.15000
H464        H  0.62589387  0.78481928  0.89706472     0.14800
C465        C  0.58771845  0.43143949  0.67384167    -0.18100
C466        C  0.57415968  0.44993116  0.69865884    -0.20300
C467        C  0.55335203  0.44344442  0.69650725     0.20400
C468        C  0.54622227  0.41717119  0.66972956    -0.03200
C469        C  0.55991867  0.39836577  0.64480718    -0.06300
C470        C  0.58073072  0.40602765  0.64650391     0.20600
C471        C  0.55269386  0.37294495  0.61738743     0.18800
C472        C  0.53192114  0.36621241  0.61538827    -0.17700
C473        C  0.51834986  0.38512441  0.63979307    -0.20000
C474        C  0.52532217  0.41094542  0.66675199     0.20300
C475        C  0.51169481  0.43212247  0.68944739    -0.33000
C476        C  0.51862025  0.45960898  0.71497080     0.01000
C477        C  0.53947787  0.46428672  0.71920893    -0.24300
C478        C  0.59408193  0.38903086  0.62017546    -0.28900
C479        C  0.58693646  0.36410260  0.59241379     0.06700
C480        C  0.56626736  0.35562542  0.59171726    -0.27600
H481        H  0.60365868  0.43754640  0.67562163     0.11400
H482        H  0.57990874  0.46999126  0.71899753     0.12500
H483        H  0.52612100  0.34686978  0.59444974     0.11600
H484        H  0.50234572  0.38009290  0.63712123     0.10800
H485        H  0.49559172  0.42886117  0.68586895     0.16200
H486        H  0.54484249  0.48626019  0.73794883     0.12100
H487        H  0.61000412  0.39564965  0.62092635     0.15000
H488        H  0.56060327  0.33683607  0.57015432     0.14800
C489        C  0.54536551  0.66880917  0.87381251    -0.18100
C490        C  0.53127453  0.65303543  0.84961029    -0.20300
C491        C  0.53400115  0.61528769  0.83562891     0.20400
C492        C  0.55122423  0.59341142  0.84573028    -0.03200
C493        C  0.56547751  0.60937307  0.87005971    -0.06300
C494        C  0.56245546  0.64714147  0.88447265     0.20600
C495        C  0.58254237  0.58722782  0.88048507     0.18800
C496        C  0.58541134  0.54966805  0.86618322    -0.17700
C497        C  0.57127680  0.53384406  0.84220844    -0.20000
C498        C  0.55405164  0.55534512  0.83204253     0.20300
C499        C  0.53956884  0.53930759  0.80866208    -0.33000
C500        C  0.52233418  0.56087120  0.79828998     0.01000
C501        C  0.51970581  0.59892857  0.81205920    -0.24300
C502        C  0.57627926  0.66213221  0.90997847    -0.28900
C503        C  0.59303037  0.63968680  0.92141353     0.06700
C504        C  0.59620265  0.60256256  0.90576207    -0.27600
H505        H  0.54278001  0.69784200  0.88450345     0.11400
H506        H  0.51813705  0.67027829  0.84206153     0.12500
H507        H  0.59848216  0.53231610  0.87391849     0.11600
H508        H  0.57374272  0.50465214  0.83184225     0.10800
H509        H  0.54187934  0.51009706  0.79844840     0.16200
H510        H  0.50630108  0.61568360  0.80516184     0.12100
H511        H  0.57364607  0.69071157  0.92175414     0.15000
H512        H  0.60909227  0.58494876  0.91400054     0.14800
C513        C  0.42749354  0.50511591  0.88020299    -0.18100
C514        C  0.41293340  0.48671127  0.90214834    -0.20300
C515        C  0.41261801  0.44615626  0.90427462     0.20400
C516        C  0.42738807  0.42392695  0.88475389    -0.03200
C517        C  0.44210761  0.44254980  0.86246765    -0.06300
C518        C  0.44194865  0.48329138  0.85992942     0.20600
C519        C  0.45653753  0.42043106  0.84181408     0.18800
C520        C  0.45643559  0.37988546  0.84470365    -0.17700
C521        C  0.44197698  0.36144149  0.86713865    -0.20000
C522        C  0.42722831  0.38314611  0.88694901     0.20300
C523        C  0.41228564  0.36484634  0.90871685    -0.33000
C524        C  0.39733319  0.38682995  0.92800273     0.01000
C525        C  0.39771947  0.42755609  0.92549988    -0.24300
C526        C  0.45558263  0.50148229  0.83575885    -0.28900
C527        C  0.46913749  0.47967413  0.81328821     0.06700
C528        C  0.47010363  0.43921299  0.81737543    -0.27600
H529        H  0.42719846  0.53644815  0.87850380     0.11400
H530        H  0.40176631  0.50420878  0.91713314     0.12500
H531        H  0.46736514  0.36236353  0.82915169     0.11600
H532        H  0.44215756  0.33011759  0.86856892     0.10800
H533        H  0.41231565  0.33354132  0.91063442     0.16200
H534        H  0.38654920  0.44501649  0.94054710     0.12100
H535        H  0.45486735  0.53272071  0.83265578     0.15000
H536        H  0.48040797  0.42233768  0.79980844     0.14800
C537        C  0.41915296  0.49288976  0.14684163    -0.18100
C538        C  0.40489711  0.47595630  0.12403842    -0.20300
C539        C  0.40511882  0.43576357  0.11855954     0.20400
C540        C  0.41962378  0.41224512  0.13650323    -0.03200
C541        C  0.43388177  0.42934000  0.15987338    -0.06300
C542        C  0.43369652  0.46982329  0.16473294     0.20600
C543        C  0.44845154  0.40604318  0.17793005     0.18800
C544        C  0.44859275  0.36577401  0.17240838    -0.17700
C545        C  0.43456969  0.34881844  0.14885628    -0.20000
C546        C  0.42010251  0.37182035  0.13057333     0.20300
C547        C  0.40643291  0.35535241  0.10578529    -0.33000
C548        C  0.39221598  0.37888787  0.08728410     0.01000
C549        C  0.39140117  0.41891196  0.09458552    -0.24300
C550        C  0.44804005  0.48669994  0.18739346    -0.28900
C551        C  0.46246487  0.46394631  0.20630061     0.06700
C552        C  0.46263873  0.42340223  0.20106352    -0.27600
H553        H  0.41882753  0.52404323  0.15043529     0.11400
H554        H  0.39385055  0.49434543  0.11031925     0.12500
H555        H  0.45965809  0.34739412  0.18609330     0.11600
H556        H  0.43513587  0.31774800  0.14472704     0.10800
H557        H  0.40707815  0.32446963  0.10042796     0.16200
H558        H  0.38059580  0.43742881  0.08034720     0.12100
H559        H  0.44788062  0.51790306  0.19081598     0.15000
H560        H  0.47370973  0.40493121  0.21428028     0.14800
C561        C  0.29604350  0.19211518  0.81395181    -0.18100
C562        C  0.30337053  0.21964804  0.83853374    -0.20300
C563        C  0.31956493  0.21037593  0.86184308     0.20400
C564        C  0.32886417  0.17339004  0.85980714    -0.03200
C565        C  0.32153320  0.14560970  0.83465058    -0.06300
C566        C  0.30489799  0.15496998  0.81207777     0.20600
C567        C  0.33018660  0.10803824  0.83337330     0.18800
C568        C  0.34639515  0.09887691  0.85688236    -0.17700
C569        C  0.35366656  0.12642160  0.88192080    -0.20000
C570        C  0.34488196  0.16370406  0.88393487     0.20300
C571        C  0.35109621  0.19086934  0.91070836    -0.33000
C572        C  0.34118878  0.22715788  0.91366657     0.01000
C573        C  0.32590697  0.23693850  0.88838883    -0.24300
C574        C  0.29675645  0.12668301  0.78912472    -0.28900
C575        C  0.30524300  0.08896066  0.78705485     0.06700
C576        C  0.32197054  0.07995800  0.80972312    -0.27600
H577        H  0.28323036  0.19970861  0.79678765     0.11400
H578        H  0.29605874  0.24793196  0.83993671     0.12500
H579        H  0.35323505  0.07015532  0.85637895     0.11600
H580        H  0.36591935  0.11831276  0.90020124     0.10800
H581        H  0.36264612  0.18297015  0.93058343     0.16200
H582        H  0.31820927  0.26484653  0.89068214     0.12100
H583        H  0.28304140  0.13392814  0.77450556     0.15000
H584        H  0.32804278  0.05065830  0.81027659     0.14800
C585        C  0.32756879  0.16514179  0.20422761    -0.18100
C586        C  0.33422957  0.19511198  0.18100407    -0.20300
C587        C  0.33768052  0.18860770  0.14272769     0.20400
C588        C  0.33495161  0.15116044  0.12795690    -0.03200
C589        C  0.32785081  0.12115809  0.15125300    -0.06300
C590        C  0.32396058  0.12826943  0.18944566     0.20600
C591        C  0.32402309  0.08441098  0.13601261     0.18800
C592        C  0.32824414  0.07740108  0.09806830    -0.17700
C593        C  0.33540668  0.10698086  0.07504134    -0.20000
C594        C  0.33841897  0.14411002  0.08955260     0.20300
C595        C  0.34383746  0.17472220  0.06597613    -0.33000
C596        C  0.34551120  0.21234092  0.08014776     0.01000
C597        C  0.34286056  0.21911941  0.11859249    -0.24300
C598        C  0.31560383  0.09902260  0.21178867    -0.28900
C599        C  0.30973316  0.06351860  0.19600342     0.06700
C600        C  0.31521239  0.05581972  0.15847374    -0.27600
H601        H  0.32464149  0.17112469  0.23349951     0.11400
H602        H  0.33630377  0.22361089  0.19288049     0.12500
H603        H  0.32549384  0.04927719  0.08593967     0.11600
H604        H  0.33805531  0.10109962  0.04564613     0.10800
H605        H  0.34556202  0.16982980  0.03616962     0.16200
H606        H  0.34384412  0.24838864  0.12929999     0.12100
H607        H  0.31243368  0.10486381  0.24102093     0.15000
H608        H  0.31238805  0.02791925  0.14616498     0.14800
C609        C  0.44575664  0.65477565  0.32428356    -0.18100
C610        C  0.43118314  0.67419666  0.34653879    -0.20300
C611        C  0.42084182  0.65465031  0.37519578     0.20400
C612        C  0.42542050  0.61503173  0.38142900    -0.03200
C613        C  0.44033224  0.59558697  0.35935403    -0.06300
C614        C  0.45046048  0.61546583  0.33039939     0.20600
C615        C  0.44468335  0.55594832  0.36561583     0.18800
C616        C  0.43429323  0.53619088  0.39397882    -0.17700
C617        C  0.41953170  0.55534235  0.41567085    -0.20000
C618        C  0.41492826  0.59461841  0.40943899     0.20300
C619        C  0.39992835  0.61366735  0.43072925    -0.33000
C620        C  0.39526293  0.65320743  0.42518662     0.01000
C621        C  0.40595871  0.67376897  0.39755676    -0.24300
C622        C  0.46442914  0.59524006  0.30716626    -0.28900
C623        C  0.46828593  0.55547697  0.31261028     0.06700
C624        C  0.45868161  0.53630908  0.34237409    -0.27600
H625        H  0.45326957  0.67049356  0.30206293     0.11400
H626        H  0.42787165  0.70447861  0.34109007     0.12500
H627        H  0.43739176  0.50574537  0.39906529     0.11600
H628        H  0.41160277  0.53933643  0.43719166     0.10800
H629        H  0.39202475  0.59766829  0.45233402     0.16200
H630        H  0.40247629  0.70417473  0.39308637     0.12100
H631        H  0.47133129  0.60973644  0.28349104     0.15000
H632        H  0.46121526  0.50541205  0.34589962     0.14800
C633        C  0.43598114  0.68063369  0.64527119    -0.18100
C634        C  0.45014026  0.66298991  0.66884216    -0.20300
C635        C  0.45100770  0.62253155  0.67284530     0.20400
C636        C  0.43736990  0.59971599  0.65298424    -0.03200
C637        C  0.42302070  0.61750890  0.62938241    -0.06300
C638        C  0.42234064  0.65819150  0.62532767     0.20600
C639        C  0.40938946  0.59450108  0.60979647     0.18800
C640        C  0.41015218  0.55408986  0.61380655    -0.17700
C641        C  0.42434832  0.53652577  0.63708793    -0.20000
C642        C  0.43799710  0.55909965  0.65675665     0.20300
C643        C  0.45213334  0.54165179  0.68033038    -0.33000
C644        C  0.46582995  0.56389922  0.70064613     0.01000
C645        C  0.46514184  0.60458165  0.69652550    -0.24300
C646        C  0.40813129  0.67558367  0.60129803    -0.28900
C647        C  0.39450345  0.65270453  0.58153151     0.06700
C648        C  0.39528073  0.61215132  0.58630418    -0.27600
H649        H  0.43570682  0.71187963  0.64263913     0.11400
H650        H  0.46045355  0.68104434  0.68393193     0.12500
H651        H  0.39976871  0.53603126  0.59887658     0.11600
H652        H  0.42463598  0.50527415  0.63974692     0.10800
H653        H  0.45235444  0.51040601  0.68338670     0.16200
H654        H  0.47517676  0.62276285  0.71184481     0.12100
H655        H  0.40775390  0.70675963  0.59788134     0.15000
H656        H  0.38503790  0.59391993  0.57121767     0.14800
C657        C  0.29153725  0.85787432  0.69489745    -0.18100
C658        C  0.29794763  0.82756602  0.67149738    -0.20300
C659        C  0.31417822  0.83247112  0.64644907     0.20400
C660        C  0.32448296  0.86781967  0.64572038    -0.03200
C661        C  0.31806063  0.89842319  0.66956620    -0.06300
C662        C  0.30131929  0.89355196  0.69374025     0.20600
C663        C  0.32797455  0.93421464  0.66837334     0.18800
C664        C  0.34441637  0.93882936  0.64367197    -0.17700
C665        C  0.35070624  0.90856970  0.61984915    -0.20000
C666        C  0.34073146  0.87301611  0.62034032     0.20300
C667        C  0.34612503  0.84317694  0.59497242    -0.33000
C668        C  0.33522516  0.80852634  0.59443563     0.01000
C669        C  0.31969108  0.80314943  0.62109768    -0.24300
C670        C  0.29424074  0.92468367  0.71568129    -0.28900
C671        C  0.30378170  0.96068316  0.71446339     0.06700
C672        C  0.32090357  0.96500172  0.69111504    -0.27600
H673        H  0.27872293  0.85360757  0.71345994     0.11400
H674        H  0.28991282  0.80052827  0.67242755     0.12500
H675        H  0.35221605  0.96609867  0.64232033     0.11600
H676        H  0.36319190  0.91320978  0.60059800     0.10800
H677        H  0.35799783  0.84775814  0.57438940     0.16200
H678        H  0.31127881  0.77651034  0.62113705     0.12100
H679        H  0.28116881  0.92083208  0.73318969     0.15000
H680        H  0.32821112  0.99276675  0.68940541     0.14800
C681        C  0.35358395  0.86966483  0.34670630    -0.18100
C682        C  0.34780893  0.89790451  0.32054920    -0.20300
C683        C  0.32893640  0.91695373  0.32360296     0.20400
C684        C  0.31593922  0.90789535  0.35376474    -0.03200
C685        C  0.32170636  0.87924966  0.38000025    -0.06300
C686        C  0.34056912  0.85974544  0.37638840     0.20600
C687        C  0.30839792  0.86968697  0.40946390     0.18800
C688        C  0.28974166  0.88928958  0.41314595    -0.17700
C689        C  0.28411354  0.91774678  0.38739846    -0.20000
C690        C  0.29698860  0.92693948  0.35739339     0.20300
C691        C  0.29100380  0.95425720  0.33059909    -0.33000
C692        C  0.30342023  0.96239766  0.29949298     0.01000
C693        C  0.32260640  0.94413789  0.29662868    -0.24300
C694        C  0.34584226  0.83025650  0.40205397    -0.28900
C695        C  0.33227067  0.81974426  0.43084110     0.06700
C696        C  0.31374252  0.84023090  0.43446546    -0.27600
H697        H  0.36813633  0.85519848  0.34340929     0.11400
H698        H  0.35804242  0.90454852  0.29765471     0.12500
H699        H  0.27939086  0.88231272  0.43575449     0.11600
H700        H  0.26952896  0.93214998  0.39063272     0.10800
H701        H  0.27652032  0.96897465  0.33397634     0.16200
H702        H  0.33233701  0.95000151  0.27279985     0.12100
H703        H  0.36016223  0.81486404  0.39900571     0.15000
H704        H  0.30324882  0.83304224  0.45680724     0.14800
C705        C  0.22898119  0.64534518  0.36152728    -0.18100
C706        C  0.24283512  0.66437186  0.38389155    -0.20300
C707        C  0.26180629  0.64745182  0.39104661     0.20400
C708        C  0.26698708  0.61124460  0.37495703    -0.03200
C709        C  0.25305351  0.59212944  0.35218518    -0.06300
C710        C  0.23387925  0.60913855  0.34575569     0.20600
C711        C  0.25812006  0.55559664  0.33661990     0.18800
C712        C  0.27708916  0.53867553  0.34374960    -0.17700
C713        C  0.29085565  0.55756462  0.36638818    -0.20000
C714        C  0.28589930  0.59370514  0.38228682     0.20300
C715        C  0.29931657  0.61206231  0.40617725    -0.33000
C716        C  0.29410267  0.64770721  0.42319962     0.01000
C717        C  0.27543666  0.66557104  0.41482741    -0.24300
C718        C  0.21977772  0.58919182  0.32448312    -0.28900
C719        C  0.22470809  0.55276422  0.30929682     0.06700
C720        C  0.24392644  0.53624919  0.31503137    -0.27600
H721        H  0.21434017  0.65879376  0.35686212     0.11400
H722        H  0.23859116  0.69212273  0.39603171     0.12500
H723        H  0.28119851  0.51061715  0.33214134     0.11600
H724        H  0.30531311  0.54368472  0.37180559     0.10800
H725        H  0.31365261  0.59799896  0.41225066     0.16200
H726        H  0.27118093  0.69289713  0.42784880     0.12100
H727        H  0.20479475  0.60147131  0.32043432     0.15000
H728        H  0.24749350  0.50771849  0.30386279     0.14800
C729        C  0.27817323  0.47969125  0.18208041    -0.18100
C730        C  0.29201026  0.46386654  0.15614561    -0.20300
C731        C  0.28811470  0.42858745  0.13843324     0.20400
C732        C  0.27046707  0.40835116  0.14799669    -0.03200
C733        C  0.25644308  0.42446249  0.17391739    -0.06300
C734        C  0.26015694  0.46060764  0.19058633     0.20600
C735        C  0.23843841  0.40491740  0.18227944     0.18800
C736        C  0.23494045  0.36882583  0.16585528    -0.17700
C737        C  0.24889556  0.35272656  0.14040974    -0.20000
C738        C  0.26650529  0.37258469  0.13081408     0.20300
C739        C  0.27987035  0.35786797  0.10346430    -0.33000
C740        C  0.29697561  0.37876537  0.09239256     0.01000
C741        C  0.30122236  0.41374418  0.11057719    -0.24300
C742        C  0.24561327  0.47738780  0.21480187    -0.28900
C743        C  0.22728595  0.45871880  0.22221813     0.06700
C744        C  0.22398670  0.42220849  0.20613508    -0.27600
H745        H  0.28136170  0.50729212  0.19487871     0.11400
H746        H  0.30558751  0.47959061  0.14942204     0.12500
H747        H  0.22124592  0.35332208  0.17223542     0.11600
H748        H  0.24569792  0.32513072  0.12761251     0.10800
H749        H  0.27650523  0.33080792  0.08975974     0.16200
H750        H  0.31455033  0.42971533  0.10264310     0.12100
H751        H  0.24859272  0.50500890  0.22769901     0.15000
H752        H  0.20986928  0.40763129  0.21113585     0.14800
C753        C  0.24286046  0.36402307  0.89411817    -0.18100
C754        C  0.22858762  0.37857006  0.86923224    -0.20300
C755        C  0.23334677  0.40938507  0.84537446     0.20400
C756        C  0.25269313  0.42567047  0.84640014    -0.03200
C757        C  0.26707837  0.41117075  0.87180722    -0.06300
C758        C  0.26206884  0.38026097  0.89574142     0.20600
C759        C  0.28635668  0.42775887  0.87348381     0.18800
C760        C  0.29116588  0.45822379  0.84911540    -0.17700
C761        C  0.27695119  0.47236472  0.82362835    -0.20000
C762        C  0.25761292  0.45647817  0.82220786     0.20300
C763        C  0.24315120  0.47059441  0.79694163    -0.33000
C764        C  0.22384782  0.45429729  0.79575661     0.01000
C765        C  0.21906840  0.42401633  0.82043658    -0.24300
C766        C  0.27620701  0.36636270  0.92131235    -0.28900
C767        C  0.29530717  0.38320761  0.92399635     0.06700
C768        C  0.30034195  0.41381381  0.89973635    -0.27600
H769        H  0.23881649  0.34024627  0.91232385     0.11400
H770        H  0.21380668  0.36568410  0.86863513     0.12500
H771        H  0.30591235  0.47122489  0.84984661     0.11600
H772        H  0.28104674  0.49589884  0.80517672     0.10800
H773        H  0.24709310  0.49353920  0.77768658     0.16200
H774        H  0.20414495  0.41169263  0.82026023     0.12100
H775        H  0.27209198  0.34282879  0.93978522     0.15000
H776        H  0.31506601  0.42682470  0.90134552     0.14800
C777        C  0.28494595  0.53096712  0.60936112    -0.18100
C778        C  0.27064729  0.50980084  0.62949301    -0.20300
C779        C  0.25514243  0.52890700  0.64968095     0.20400
C780        C  0.25420584  0.56980566  0.64996398    -0.03200
C781        C  0.26852476  0.59116164  0.62933956    -0.06300
C782        C  0.28390384  0.57158989  0.60885881     0.20600
C783        C  0.26718986  0.63201157  0.62859144     0.18800
C784        C  0.25189124  0.65112427  0.64934022    -0.17700
C785        C  0.23782816  0.62998439  0.67010295    -0.20000
C786        C  0.23875366  0.58936455  0.67032160     0.20300
C787        C  0.22436805  0.56796060  0.69016927    -0.33000
C788        C  0.22512722  0.52736932  0.68973256     0.01000
C789        C  0.24047986  0.50792132  0.66938466    -0.24300
C790        C  0.29763016  0.59287564  0.58736598    -0.28900
C791        C  0.29594581  0.63351120  0.58518305     0.06700
C792        C  0.28083662  0.65292386  0.60636048    -0.27600
H793        H  0.29667166  0.51552599  0.59373496     0.11400
H794        H  0.27164450  0.47846153  0.62908065     0.12500
H795        H  0.25067881  0.68244613  0.64922399     0.11600
H796        H  0.22608088  0.64540859  0.68568492     0.10800
H797        H  0.21223580  0.58284427  0.70508863     0.16200
H798        H  0.24105514  0.47652849  0.66920593     0.12100
H799        H  0.30911099  0.57756510  0.57098653     0.15000
H800        H  0.27946179  0.68421380  0.60499170     0.14800
C801        C  0.25106166  0.10758672  0.60270307    -0.18100
C802        C  0.23645028  0.12261889  0.57868747    -0.20300
C803        C  0.21591675  0.11578847  0.58545285     0.20400
C804        C  0.21001466  0.09298717  0.61627552    -0.03200
C805        C  0.22477829  0.07777093  0.64052972    -0.06300
C806        C  0.24536741  0.08549825  0.63386569     0.20600
C807        C  0.21891679  0.05556314  0.67184247     0.18800
C808        C  0.19836317  0.04855700  0.67838596    -0.17700
C809        C  0.18372456  0.06351987  0.65422656    -0.20000
C810        C  0.18937083  0.08583776  0.62314236     0.20300
C811        C  0.17477672  0.10142543  0.59899455    -0.33000
C812        C  0.18060056  0.12470658  0.56860962     0.01000
C813        C  0.20119557  0.13164735  0.56205295    -0.24300
C814        C  0.25984633  0.07202237  0.65909375    -0.28900
C815        C  0.25405646  0.05078842  0.69080317     0.06700
C816        C  0.23366534  0.04180422  0.69660960    -0.27600
H817        H  0.26680536  0.11366269  0.59717137     0.11400
H818        H  0.24120101  0.13992136  0.55500377     0.12500
H819        H  0.19359073  0.03175346  0.70238194     0.11600
H820        H  0.16795881  0.05785327  0.66001405     0.10800
H821        H  0.15891418  0.09606486  0.60419471     0.16200
H822        H  0.20580372  0.14917940  0.53840231     0.12100
H823        H  0.27560437  0.07888193  0.65467494     0.15000
H824        H  0.22920791  0.02584329  0.72138046     0.14800
C825        C  0.18762405  0.04324817  0.35548623    -0.18100
C826        C  0.20244543  0.02671170  0.33189096    -0.20300
C827        C  0.21972279  0.04751074  0.32196750     0.20400
C828        C  0.22197042  0.08545711  0.33573122    -0.03200
C829        C  0.20693512  0.10228744  0.35914316    -0.06300
C830        C  0.18977144  0.08096044  0.36934765     0.20600
C831        C  0.20926327  0.14026679  0.37278512     0.18800
C832        C  0.22652455  0.16103146  0.36299418    -0.17700
C833        C  0.24150286  0.14422350  0.34014793    -0.20000
C834        C  0.23933900  0.10651964  0.32642197     0.20300
C835        C  0.25430908  0.08964061  0.30353903    -0.33000
C836        C  0.25206279  0.05220081  0.28880709     0.01000
C837        C  0.23475474  0.03115944  0.29847595    -0.24300
C838        C  0.17534331  0.09739883  0.39395088    -0.28900
C839        C  0.17784626  0.13495887  0.40836570     0.06700
C840        C  0.19460404  0.15647905  0.39685994    -0.27600
H841        H  0.17453073  0.02646123  0.36305189     0.11400
H842        H  0.20045329  0.99755818  0.32159229     0.12500
H843        H  0.22855594  0.19016415  0.37335473     0.11600
H844        H  0.25477174  0.16072725  0.33317900     0.10800
H845        H  0.26782347  0.10577033  0.29753495     0.16200
H846        H  0.23273537  0.00237235  0.28738497     0.12100
H847        H  0.16241452  0.08060954  0.40252781     0.15000
H848        H  0.19673962  0.18530032  0.40794155     0.14800
C849        C  0.03219689  0.15271252  0.36542027    -0.18100
C850        C  0.01905318  0.13519417  0.34056359    -0.20300
C851        C  0.02389328  0.09886276  0.32495608     0.20400
C852        C  0.04209776  0.07990942  0.33458739    -0.03200
C853        C  0.05538686  0.09763180  0.35958514    -0.06300
C854        C  0.05040228  0.13419514  0.37513250     0.20600
C855        C  0.07357345  0.07861290  0.36920221     0.18800
C856        C  0.07833868  0.04214336  0.35383187    -0.17700
C857        C  0.06514188  0.02453930  0.32918964    -0.20000
C858        C  0.04700048  0.04317794  0.31937427     0.20300
C859        C  0.03377592  0.02583376  0.29441752    -0.33000
C860        C  0.01583409  0.04490088  0.28389359     0.01000
C861        C  0.01088640  0.08124160  0.29979862    -0.24300
C862        C  0.06353010  0.15127457  0.40056324    -0.28900
C863        C  0.08155417  0.13216395  0.41084252     0.06700
C864        C  0.08654158  0.09603944  0.39449618    -0.27600
H865        H  0.02808936  0.18072354  0.37713680     0.11400
H866        H  0.00509674  0.15010281  0.33350837     0.12500
H867        H  0.09224430  0.02712998  0.36101717     0.11600
H868        H  0.06914585  0.99634970  0.31775033     0.10800
H869        H  0.03772133  0.99781024  0.28274258     0.16200
H870        H  0.99679770  0.09576739  0.29293957     0.12100
H871        H  0.05948714  0.17903346  0.41292280     0.15000
H872        H  0.10037556  0.08093758  0.40201219     0.14800
C873        C  0.15296961  0.43698150  0.41112601    -0.18100
C874        C  0.14592744  0.40646427  0.43306985    -0.20300
C875        C  0.14044794  0.37150892  0.41642026     0.20400
C876        C  0.14117249  0.36780901  0.37717919    -0.03200
C877        C  0.14849295  0.39853418  0.35506255    -0.06300
C878        C  0.15486295  0.43285755  0.37223358     0.20600
C879        C  0.15023392  0.39429466  0.31599289     0.18800
C880        C  0.14379952  0.35998809  0.29921297    -0.17700
C881        C  0.13655201  0.32946868  0.32112230    -0.20000
C882        C  0.13555882  0.33275244  0.36019341     0.20300
C883        C  0.13001679  0.30112025  0.38269390    -0.33000
C884        C  0.13043819  0.30419134  0.42177704     0.01000
C885        C  0.13519311  0.33961214  0.43840592    -0.24300
C886        C  0.16409854  0.46157282  0.35063024    -0.28900
C887        C  0.16797457  0.45586171  0.31214660     0.06700
C888        C  0.15950037  0.42339053  0.29471956    -0.27600
H889        H  0.15766808  0.46327463  0.42473421     0.11400
H890        H  0.14528842  0.40982824  0.46315428     0.12500
H891        H  0.14497483  0.35626422  0.26920956     0.11600
H892        H  0.13224929  0.30289184  0.30756381     0.10800
H893        H  0.12660872  0.27356829  0.36997705     0.16200
H894        H  0.13561421  0.34174894  0.46861271     0.12100
H895        H  0.16874485  0.48758022  0.36451480     0.15000
H896        H  0.16154251  0.41933795  0.26486803     0.14800
C897        C  0.15485282  0.32712030  0.70301396    -0.18100
C898        C  0.14787115  0.29886566  0.67858810    -0.20300
C899        C  0.14169072  0.30904269  0.64251567     0.20400
C900        C  0.14152188  0.34838185  0.63170821    -0.03200
C901        C  0.14890697  0.37680109  0.65617233    -0.06300
C902        C  0.15604963  0.36594966  0.69159826     0.20600
C903        C  0.14992050  0.41575789  0.64458003     0.18800
C904        C  0.14258995  0.42627758  0.60932763    -0.17700
C905        C  0.13518324  0.39820001  0.58513287    -0.20000
C906        C  0.13500628  0.35907760  0.59572390     0.20300
C907        C  0.12951414  0.33027258  0.57030618    -0.33000
C908        C  0.13114478  0.29096278  0.58003184     0.01000
C909        C  0.13672737  0.28050009  0.61640995    -0.24300
C910        C  0.16521751  0.39359202  0.71423329    -0.28900
C911        C  0.16832874  0.43180815  0.70133172     0.06700
C912        C  0.15925657  0.44305610  0.66748466    -0.27600
H913        H  0.16009300  0.31831304  0.73031737     0.11400
H914        H  0.14785854  0.26890090  0.68753336     0.12500
H915        H  0.14315971  0.45607537  0.59998501     0.11600
H916        H  0.13019239  0.40693175  0.55765107     0.10800
H917        H  0.12541542  0.33821641  0.54206841     0.16200
H918        H  0.13800741  0.25011624  0.62379429     0.12100
H919        H  0.17024812  0.38449294  0.74144383     0.15000
H920        H  0.16064961  0.47263225  0.65780443     0.14800
C921        C  0.20235602  0.95967594  0.18003891    -0.18100
C922        C  0.18891899  0.94153358  0.15612738    -0.20300
C923        C  0.19563092  0.91137483  0.13249087     0.20400
C924        C  0.21598124  0.89873031  0.13367509    -0.03200
C925        C  0.22959847  0.91732688  0.15748553    -0.06300
C926        C  0.22277770  0.94819903  0.18051852     0.20600
C927        C  0.25018483  0.90599733  0.15716397     0.18800
C928        C  0.25678277  0.87517259  0.13431776    -0.17700
C929        C  0.24323949  0.85640017  0.11115679    -0.20000
C930        C  0.22289872  0.86834342  0.11018852     0.20300
C931        C  0.20954078  0.85122941  0.08529503    -0.33000
C932        C  0.18941346  0.86460553  0.08283602     0.01000
C933        C  0.18251493  0.89438710  0.10697921    -0.24300
C934        C  0.23666826  0.96807551  0.20233811    -0.28900
C935        C  0.25728860  0.95807234  0.20060630     0.06700
C936        C  0.26392881  0.92668552  0.17852653    -0.27600
H937        H  0.19686557  0.98329183  0.19755678     0.11400
H938        H  0.17332801  0.95149822  0.15571298     0.12500
H939        H  0.27250418  0.86600105  0.13388526     0.11600
H940        H  0.24878349  0.83305997  0.09335734     0.10800
H941        H  0.21507533  0.82852016  0.06671805     0.16200
H942        H  0.16702090  0.90482351  0.10547841     0.12100
H943        H  0.23166678  0.99282074  0.21885498     0.15000
H944        H  0.27989163  0.91926856  0.17712167     0.14800
C945        C  0.23823497  0.88627396  0.82144509    -0.18100
C946        C  0.22534110  0.86540815  0.84488786    -0.20300
C947        C  0.21241674  0.88478452  0.87032317     0.20400
C948        C  0.21243954  0.92561975  0.87208850    -0.03200
C949        C  0.22560710  0.94664737  0.84872016    -0.06300
C950        C  0.23849989  0.92684515  0.82325231     0.20600
C951        C  0.22603990  0.98741823  0.85116714     0.18800
C952        C  0.21312119  0.00680519  0.87661128    -0.17700
C953        C  0.19990908  0.98598874  0.89950007    -0.20000
C954        C  0.19948920  0.94543343  0.89749165     0.20300
C955        C  0.18658471  0.92433300  0.92085520    -0.33000
C956        C  0.18674885  0.88360513  0.91980786     0.01000
C957        C  0.19967279  0.86404122  0.89435119    -0.24300
C958        C  0.25170123  0.94785227  0.80040953    -0.28900
C959        C  0.25247505  0.98831075  0.80304417     0.06700
C960        C  0.23954308  0.00797480  0.82840947    -0.27600
H961        H  0.24810580  0.87066794  0.80209590     0.11400
H962        H  0.22552096  0.83408580  0.84318621     0.12500
H963        H  0.21327021  0.03807311  0.87887953     0.11600
H964        H  0.19011251  0.00160988  0.91899392     0.10800
H965        H  0.17685775  0.93963016  0.94072834     0.16200
H966        H  0.19988453  0.83266475  0.89337638     0.12100
H967        H  0.26183098  0.93259311  0.78174608     0.15000
H968        H  0.24000601  0.03926475  0.83039777     0.14800
C969        C  0.01975729  0.87232164  0.11908815    -0.18100
C970        C  0.03432101  0.85221861  0.09766669    -0.20300
C971        C  0.05494344  0.85712850  0.10419444     0.20400
C972        C  0.06094060  0.88183392  0.13328314    -0.03200
C973        C  0.04621011  0.90165444  0.15534453    -0.06300
C974        C  0.02554452  0.89734678  0.14772227     0.20600
C975        C  0.05217153  0.92693165  0.18399945     0.18800
C976        C  0.07280709  0.93168694  0.19064916    -0.17700
C977        C  0.08740131  0.91252275  0.16841170    -0.20000
C978        C  0.08162984  0.88795794  0.13934460     0.20300
C979        C  0.09610695  0.87076293  0.11520922    -0.33000
C980        C  0.09018920  0.84696073  0.08550359     0.01000
C981        C  0.06962598  0.83923180  0.08100512    -0.24300
C982        C  0.01106957  0.91924364  0.16787771    -0.28900
C983        C  0.01690956  0.94526837  0.19574980     0.06700
C984        C  0.03743722  0.94824924  0.20432806    -0.27600
H985        H  0.00394732  0.86872876  0.11287700     0.11400
H986        H  0.02945218  0.83352728  0.07536526     0.12500
H987        H  0.07766901  0.95096589  0.21248538     0.11600
H988        H  0.10322373  0.91745911  0.17353778     0.10800
H989        H  0.11195837  0.87691351  0.11871338     0.16200
H990        H  0.06497240  0.82147487  0.05780752     0.12100
H991        H  0.99523534  0.91706913  0.16107604     0.15000
H992        H  0.04203508  0.96897370  0.22502863     0.14800
C993        C  0.18886680  0.68278044  0.83099059    -0.18100
C994        C  0.19411260  0.65246040  0.80657245    -0.20300
C995        C  0.18243851  0.61896997  0.80529984     0.20400
C996        C  0.16498221  0.61651392  0.82810514    -0.03200
C997        C  0.15966777  0.64720207  0.85283052    -0.06300
C998        C  0.17184603  0.68020611  0.85462316     0.20600
C999        C  0.14251162  0.64436415  0.87645691     0.18800
C1000       C  0.13067043  0.61111200  0.87462019    -0.17700
C1001       C  0.13592049  0.58077504  0.85012334    -0.20000
C1002       C  0.15313206  0.58300973  0.82692356     0.20300
C1003       C  0.15894812  0.55201067  0.80327803    -0.33000
C1004       C  0.17668580  0.55371677  0.78114719     0.01000
C1005       C  0.18819238  0.58761749  0.78225315    -0.24300
C1006       C  0.16720066  0.70946247  0.88082319    -0.28900
C1007       C  0.15047986  0.70644787  0.90542186     0.06700
C1008       C  0.13790163  0.67416458  0.90231550    -0.27600
H1009       H  0.19834016  0.70799506  0.83184788     0.11400
H1010       H  0.20750347  0.65496340  0.78907245     0.12500
H1011       H  0.11746787  0.60830517  0.89254558     0.11600
H1012       H  0.12663311  0.55529661  0.84967630     0.10800
H1013       H  0.15006017  0.52599690  0.80321682     0.16200
H1014       H  0.20181017  0.58968214  0.76549458     0.12100
H1015       H  0.17696682  0.73420804  0.88275996     0.15000
H1016       H  0.12510640  0.67129592  0.92125009     0.14800
C1017       C  0.13583593  0.62221538  0.18499227    -0.18100
C1018       C  0.13053348  0.64943649  0.15755716    -0.20300
C1019       C  0.14364066  0.65685967  0.12730797     0.20400
C1020       C  0.16210889  0.63589260  0.12443655    -0.03200
C1021       C  0.16740248  0.60822866  0.15201400    -0.06300
C1022       C  0.15432078  0.60169687  0.18268980     0.20600
C1023       C  0.18595467  0.58763332  0.14918243     0.18800
C1024       C  0.19884320  0.59422451  0.11848975    -0.17700
C1025       C  0.19369651  0.62175956  0.09141859    -0.20000
C1026       C  0.17550039  0.64305937  0.09439234     0.20300
C1027       C  0.17069600  0.67188353  0.06819153    -0.33000
C1028       C  0.15254313  0.69366690  0.07107796     0.01000
C1029       C  0.13885195  0.68535479  0.10036338    -0.24300
C1030       C  0.16011756  0.57534714  0.21080092    -0.28900
C1031       C  0.17885737  0.55528833  0.20866688     0.06700
C1032       C  0.19147513  0.56125188  0.17729710    -0.27600
H1033       H  0.12553725  0.61748821  0.20825430     0.11400
H1034       H  0.11627622  0.66508686  0.16029460     0.12500
H1035       H  0.21308472  0.57851098  0.11572045     0.11600
H1036       H  0.20408312  0.62672455  0.06834410     0.10800
H1037       H  0.18124206  0.67757775  0.04550664     0.16200
H1038       H  0.12484934  0.70190495  0.10289542     0.12100
H1039       H  0.15024483  0.57131008  0.23480297     0.15000
H1040       H  0.20564251  0.54531048  0.17457868     0.14800
C1041       C  0.02057794  0.13653519  0.65746857    -0.18100
C1042       C  0.03308888  0.15468991  0.63117073    -0.20300
C1043       C  0.05151204  0.13733089  0.61994487     0.20400
C1044       C  0.05765602  0.10190107  0.63634220    -0.03200
C1045       C  0.04516169  0.08380632  0.66313198    -0.06300
C1046       C  0.02633990  0.10083892  0.67320407     0.20600
C1047       C  0.05112501  0.04780915  0.67859627     0.18800
C1048       C  0.06966606  0.03073312  0.66791596    -0.17700
C1049       C  0.08200243  0.04860802  0.64136360    -0.20000
C1050       C  0.07599090  0.08384253  0.62510408     0.20300
C1051       C  0.08778502  0.10070284  0.59706318    -0.33000
C1052       C  0.08159601  0.13544036  0.57974888     0.01000
C1053       C  0.06362300  0.15409346  0.59190431    -0.24300
C1054       C  0.01324108  0.08085222  0.69730075    -0.28900
C1055       C  0.01888842  0.04437773  0.71144461     0.06700
C1056       C  0.03799402  0.02852581  0.70294680    -0.27600
H1057       H  0.00620778  0.15005644  0.66496320     0.11400
H1058       H  0.02814476  0.18191610  0.61900606     0.12500
H1059       H  0.07442378  0.00311531  0.67949253     0.11600
H1060       H  0.09609166  0.03449616  0.63302478     0.10800
H1061       H  0.10174566  0.08631954  0.58832995     0.16200
H1062       H  0.05874795  0.18088049  0.57875777     0.12100
H1063       H  0.99824294  0.09249204  0.70336226     0.15000
H1064       H  0.04202253  0.99993777  0.71329599     0.14800
C1065       C  0.06669537  0.97316312  0.84684849    -0.18100
C1066       C  0.08091065  0.95580019  0.87047566    -0.20300
C1067       C  0.07826492  0.91791307  0.88374757     0.20400
C1068       C  0.06109354  0.89735909  0.87309374    -0.03200
C1069       C  0.04661940  0.91507014  0.84947162    -0.06300
C1070       C  0.04946106  0.95309756  0.83617706     0.20600
C1071       C  0.02932386  0.89470492  0.83920184     0.18800
C1072       C  0.02668679  0.85680530  0.85241034    -0.17700
C1073       C  0.04106097  0.83919580  0.87553425    -0.20000
C1074       C  0.05832541  0.85919556  0.88614854     0.20300
C1075       C  0.07270150  0.84188349  0.90990168    -0.33000
C1076       C  0.08975883  0.86238608  0.92129173     0.01000
C1077       C  0.09238801  0.90042044  0.90773498    -0.24300
C1078       C  0.03515918  0.97026276  0.81222858    -0.28900
C1079       C  0.01782219  0.95015028  0.80159463     0.06700
C1080       C  0.01499968  0.91243807  0.81582222    -0.27600
H1081       H  0.06917099  0.00236723  0.83697735     0.11400
H1082       H  0.09401382  0.97205992  0.87837221     0.12500
H1083       H  0.01349833  0.84067140  0.84474862     0.11600
H1084       H  0.03861865  0.80993124  0.88525928     0.10800
H1085       H  0.07034263  0.81279413  0.92022192     0.16200
H1086       H  0.10541944  0.91667457  0.91606833     0.12100
H1087       H  0.03786749  0.99893384  0.80126194     0.15000
H1088       H  0.00158640  0.89666571  0.80893208     0.14800
C1089       C  0.94488237  0.14290110  0.14911125    -0.18100
C1090       C  0.92991239  0.15949929  0.12657863    -0.20300
C1091       C  0.91565024  0.13614132  0.10928407     0.20400
C1092       C  0.91656383  0.09566347  0.11478120    -0.03200
C1093       C  0.93181057  0.07893434  0.13694046    -0.06300
C1094       C  0.94597403  0.10261232  0.15446202     0.20600
C1095       C  0.93284943  0.03843697  0.14149090     0.18800
C1096       C  0.91864816  0.01495398  0.12440223    -0.17700
C1097       C  0.90341974  0.03151022  0.10290112    -0.20000
C1098       C  0.90231064  0.07172324  0.09792371     0.20300
C1099       C  0.88733010  0.08817824  0.07580528    -0.33000
C1100       C  0.88646455  0.12830605  0.06928179     0.01000
C1101       C  0.90065850  0.15228513  0.08622993    -0.24300
C1102       C  0.96080370  0.08561171  0.17728089    -0.28900
C1103       C  0.96169109  0.04506702  0.18243712     0.06700
C1104       C  0.94789661  0.02194355  0.16345275    -0.27600
H1105       H  0.95563197  0.16158472  0.16230028     0.11400
H1106       H  0.92947560  0.19061304  0.12273101     0.12500
H1107       H  0.91926023  0.98379177  0.12782589     0.11600
H1108       H  0.89256837  0.01282385  0.08996463     0.10800
H1109       H  0.87668648  0.06925558  0.06256461     0.16200
H1110       H  0.90014105  0.18323850  0.08125953     0.12100
H1111       H  0.97132200  0.10427939  0.19080464     0.15000
H1112       H  0.94852910  0.99074414  0.16689592     0.14800
C1113       C  0.92899420  0.12771254  0.79585608    -0.18100
C1114       C  0.91425951  0.14564606  0.81878747    -0.20300
C1115       C  0.91150372  0.13369634  0.85598627     0.20400
C1116       C  0.92430226  0.10430468  0.87050618    -0.03200
C1117       C  0.93940503  0.08672238  0.84759340    -0.06300
C1118       C  0.94140552  0.09780191  0.80982043     0.20600
C1119       C  0.95184933  0.05675296  0.86204510     0.18800
C1120       C  0.94945954  0.04541788  0.89942137    -0.17700
C1121       C  0.93437721  0.06248281  0.92194053    -0.20000
C1122       C  0.92153242  0.09139017  0.90754644     0.20300
C1123       C  0.90559291  0.10672880  0.92926624    -0.33000
C1124       C  0.89251913  0.13535638  0.91491996     0.01000
C1125       C  0.89582867  0.14960057  0.87859115    -0.24300
C1126       C  0.95499868  0.07731463  0.78632012    -0.28900
C1127       C  0.96671085  0.04631997  0.80032268     0.06700
C1128       C  0.96564998  0.03713706  0.83837592    -0.27600
H1129       H  0.93039975  0.13670108  0.76695421     0.11400
H1130       H  0.90466573  0.16817564  0.80712632     0.12500
H1131       H  0.95888206  0.02254177  0.91095109     0.11600
H1132       H  0.93249713  0.05251446  0.95045416     0.10800
H1133       H  0.90318356  0.09611619  0.95747777     0.16200
H1134       H  0.88574303  0.17168366  0.86751462     0.12100
H1135       H  0.95572810  0.08400676  0.75674127     0.15000
H1136       H  0.97444451  0.01278308  0.84885793     0.14800
C1137       C  0.72667354  0.11050221  0.84401504    -0.18100
C1138       C  0.74009586  0.12722181  0.86861760    -0.20300
C1139       C  0.75905819  0.10992505  0.87467706     0.20400
C1140       C  0.76465197  0.07547527  0.85582408    -0.03200
C1141       C  0.75105879  0.05853382  0.83095445    -0.06300
C1142       C  0.73202269  0.07624754  0.82509964     0.20600
C1143       C  0.75641669  0.02384766  0.81220887     0.18800
C1144       C  0.77544994  0.00662409  0.81835080    -0.17700
C1145       C  0.78897720  0.02350048  0.84303929    -0.20000
C1146       C  0.78370586  0.05788641  0.86203604     0.20300
C1147       C  0.79696630  0.07482050  0.88743312    -0.33000
C1148       C  0.79129634  0.10906001  0.90661601     0.01000
C1149       C  0.77237010  0.12642594  0.89965929    -0.24300
C1150       C  0.71858149  0.05948179  0.80047669    -0.28900
C1151       C  0.72377693  0.02518212  0.78129622     0.06700
C1152       C  0.74263775  0.00714605  0.78770598    -0.27600
H1153       H  0.71208691  0.12436770  0.83979033     0.11400
H1154       H  0.73561559  0.15366578  0.88301492     0.12500
H1155       H  0.77986038  0.98006122  0.80411310     0.11600
H1156       H  0.80353093  0.00955766  0.84739231     0.10800
H1157       H  0.81147845  0.06106058  0.89267549     0.16200
H1158       H  0.76775877  0.15275654  0.91414691     0.12100
H1159       H  0.70386716  0.07299586  0.79667377     0.15000
H1160       H  0.74673242  0.98050661  0.77340259     0.14800
C1161       C  0.74816633  0.99891995  0.11463356    -0.18100
C1162       C  0.76182789  0.01408814  0.08837575    -0.20300
C1163       C  0.77033281  0.05060604  0.09390133     0.20400
C1164       C  0.76539697  0.07150390  0.12674209    -0.03200
C1165       C  0.75176766  0.05606814  0.15333391    -0.06300
C1166       C  0.74282994  0.01985894  0.14703297     0.20600
C1167       C  0.74674907  0.07736763  0.18583433     0.18800
C1168       C  0.75571351  0.11321397  0.19208946    -0.17700
C1169       C  0.76899648  0.12865674  0.16563065    -0.20000
C1170       C  0.77366184  0.10836336  0.13263180     0.20300
C1171       C  0.78603369  0.12481159  0.10505758    -0.33000
C1172       C  0.79065897  0.10474287  0.07185700     0.01000
C1173       C  0.78322289  0.06713842  0.06683765    -0.24300
C1174       C  0.72840315  0.00584259  0.17279178    -0.28900
C1175       C  0.72277209  0.02787454  0.20444023     0.06700
C1176       C  0.73249567  0.06300884  0.21118246    -0.27600
H1177       H  0.74156450  0.97101489  0.10933679     0.11400
H1178       H  0.76546096  0.99754574  0.06340319     0.12500
H1179       H  0.75210159  0.12973242  0.21709577     0.11600
H1180       H  0.77537717  0.15679932  0.17071402     0.10800
H1181       H  0.79196313  0.15352012  0.10925261     0.16200
H1182       H  0.78676635  0.05153130  0.04124852     0.12100
H1183       H  0.72111844  0.97854770  0.16763608     0.15000
H1184       H  0.72883493  0.07951417  0.23618887     0.14800
C1185       C  0.91095607  0.96217153  0.38292682    -0.18100
C1186       C  0.92467833  0.98147799  0.36001401    -0.20300
C1187       C  0.93950225  0.96060511  0.33977619     0.20400
C1188       C  0.94077382  0.91994586  0.34293136    -0.03200
C1189       C  0.92692176  0.90042615  0.36621986    -0.06300
C1190       C  0.91192554  0.92172229  0.38608073     0.20600
C1191       C  0.92796593  0.85971791  0.36940254     0.18800
C1192       C  0.94292298  0.83897332  0.34918338    -0.17700
C1193       C  0.95656012  0.85832783  0.32574015    -0.20000
C1194       C  0.95556525  0.89880882  0.32220482     0.20300
C1195       C  0.96845846  0.91847480  0.29725402    -0.33000
C1196       C  0.96645539  0.95876654  0.29287925     0.01000
C1197       C  0.95250357  0.97965818  0.31523215    -0.24300
C1198       C  0.89821663  0.90237320  0.40908224    -0.28900
C1199       C  0.89930123  0.86185594  0.41322970     0.06700
C1200       C  0.91414704  0.84062395  0.39295068    -0.27600
H1201       H  0.89953911  0.97888262  0.39811130     0.11400
H1202       H  0.92351930  0.01271848  0.35771569     0.12500
H1203       H  0.94399442  0.80772696  0.35130819     0.11600
H1204       H  0.96777010  0.84157171  0.31008459     0.10800
H1205       H  0.97911667  0.90237121  0.27973183     0.16200
H1206       H  0.95104710  0.01079739  0.31188386     0.12100
H1207       H  0.88689797  0.91922201  0.42440079     0.15000
H1208       H  0.91515138  0.80943136  0.39588782     0.14800
C1209       C  0.90918188  0.95739038  0.60966875    -0.18100
C1210       C  0.92256023  0.97513585  0.63378013    -0.20300
C1211       C  0.93712807  0.95295723  0.65265616     0.20400
C1212       C  0.93842979  0.91263944  0.64692288    -0.03200
C1213       C  0.92514392  0.89477737  0.62206466    -0.06300
C1214       C  0.91033608  0.91728049  0.60373703     0.20600
C1215       C  0.92667241  0.85450313  0.61556238     0.18800
C1216       C  0.94144009  0.83251237  0.63415747    -0.17700
C1217       C  0.95442866  0.85017384  0.65924339    -0.20000
C1218       C  0.95299705  0.89020049  0.66595758     0.20300
C1219       C  0.96581611  0.90809844  0.69142641    -0.33000
C1220       C  0.96441091  0.94839855  0.69785398     0.01000
C1221       C  0.95030300  0.97048572  0.67735607    -0.24300
C1222       C  0.89698195  0.89937040  0.57963487    -0.28900
C1223       C  0.89842384  0.85932153  0.57278980     0.06700
C1224       C  0.91342665  0.83704305  0.59058215    -0.27600
H1225       H  0.89794641  0.97505829  0.59560609     0.11400
H1226       H  0.92139740  0.00616498  0.63792277     0.12500
H1227       H  0.94286673  0.80159584  0.62947764     0.11600
H1228       H  0.96559266  0.83247941  0.67344905     0.10800
H1229       H  0.97691450  0.89032607  0.70541942     0.16200
H1230       H  0.94937447  0.00160116  0.68122915     0.12100
H1231       H  0.88568732  0.91686862  0.56549566     0.15000
H1232       H  0.91464078  0.80619103  0.58527706     0.14800
C1233       C  0.74355169  0.83576922  0.59865057    -0.18100
C1234       C  0.72862183  0.85381560  0.62092340    -0.20300
C1235       C  0.73348166  0.88449244  0.64465273     0.20400
C1236       C  0.75367423  0.89665133  0.64648844    -0.03200
C1237       C  0.76868680  0.87877180  0.62366252    -0.06300
C1238       C  0.76356713  0.84833503  0.59945311     0.20600
C1239       C  0.78866392  0.89221058  0.62419405     0.18800
C1240       C  0.79361092  0.92244118  0.64838310    -0.17700
C1241       C  0.77878379  0.93991278  0.67124981    -0.20000
C1242       C  0.75874899  0.92753606  0.67020405     0.20300
C1243       C  0.74358711  0.94627672  0.69154052    -0.33000
C1244       C  0.72343749  0.93487558  0.68911106     0.01000
C1245       C  0.71844985  0.90393514  0.66579779    -0.24300
C1246       C  0.77837007  0.83205738  0.57546166    -0.28900
C1247       C  0.79804721  0.84666086  0.57458021     0.06700
C1248       C  0.80317125  0.87617455  0.59957344    -0.27600
H1249       H  0.73935469  0.81248594  0.58020951     0.11400
H1250       H  0.71321119  0.84407871  0.61924807     0.12500
H1251       H  0.80889518  0.93299921  0.64918160     0.11600
H1252       H  0.78291981  0.96357435  0.68929558     0.10800
H1253       H  0.74727359  0.97100853  0.70854182     0.16200
H1254       H  0.70281180  0.89560710  0.66364301     0.12100
H1255       H  0.77429963  0.80951133  0.55605192     0.15000
H1256       H  0.81836096  0.88733959  0.59916966     0.14800
C1257       C  0.78409934  0.96688308  0.38965908    -0.18100
C1258       C  0.76898049  0.98536655  0.36903006    -0.20300
C1259       C  0.75557718  0.96359032  0.34795271     0.20400
C1260       C  0.75761018  0.92284413  0.34714359    -0.03200
C1261       C  0.77272226  0.90419069  0.36823664    -0.06300
C1262       C  0.78596200  0.92633909  0.38969100     0.20600
C1263       C  0.77427683  0.86337319  0.36850199     0.18800
C1264       C  0.76108204  0.84166284  0.34691224    -0.17700
C1265       C  0.74623544  0.86017472  0.32567575    -0.20000
C1266       C  0.74427091  0.90066364  0.32587935     0.20300
C1267       C  0.72893674  0.91930755  0.30583150    -0.33000
C1268       C  0.72653546  0.95963147  0.30734222     0.01000
C1269       C  0.73995838  0.98171877  0.32817343    -0.24300
C1270       C  0.80048449  0.90752526  0.41156747    -0.28900
C1271       C  0.80166917  0.86682151  0.41298688     0.06700
C1272       C  0.78866836  0.84494939  0.39103004    -0.27600
H1273       H  0.79415341  0.98427302  0.40602281     0.11400
H1274       H  0.76765347  0.01666748  0.36983425     0.12500
H1275       H  0.76211630  0.81033286  0.34674021     0.11600
H1276       H  0.73610172  0.84278313  0.30947482     0.10800
H1277       H  0.71841441  0.90235281  0.29022796     0.16200
H1278       H  0.73815869  0.01297483  0.32901457     0.12100
H1279       H  0.81033144  0.92461589  0.42868096     0.15000
H1280       H  0.78955673  0.81359929  0.39190276     0.14800
C1281       C  0.70375401  0.46937567  0.60105654    -0.18100
C1282       C  0.71804647  0.48816512  0.62245848    -0.20300
C1283       C  0.73093497  0.46680233  0.64570647     0.20400
C1284       C  0.72940396  0.42610738  0.64752478    -0.03200
C1285       C  0.71506514  0.40710009  0.62568919    -0.06300
C1286       C  0.70219905  0.42893394  0.60247734     0.20600
C1287       C  0.71374058  0.36631940  0.62680227     0.18800
C1288       C  0.72667918  0.34504980  0.65013632    -0.17700
C1289       C  0.74084100  0.36392851  0.67198750    -0.20000
C1290       C  0.74235104  0.40440112  0.67079915     0.20300
C1291       C  0.75675468  0.42354372  0.69201727    -0.33000
C1292       C  0.75838642  0.46393547  0.69001938     0.01000
C1293       C  0.74545761  0.48539573  0.66688784    -0.24300
C1294       C  0.68810906  0.41000300  0.58072344    -0.28900
C1295       C  0.68672687  0.36932334  0.58120824     0.06700
C1296       C  0.69963988  0.34760502  0.60433842    -0.27600
H1297       H  0.69397543  0.48647342  0.58322129     0.11400
H1298       H  0.71905454  0.51939114  0.62075749     0.12500
H1299       H  0.72588932  0.31377997  0.65141019     0.11600
H1300       H  0.75069246  0.34684265  0.68968542     0.10800
H1301       H  0.76712118  0.40694050  0.70891487     0.16200
H1302       H  0.74678755  0.51660785  0.66538259     0.12100
H1303       H  0.67845686  0.42715488  0.56267549     0.15000
H1304       H  0.69872814  0.31631562  0.60483171     0.14800
C1305       C  0.71447391  0.64766135  0.83331867    -0.18100
C1306       C  0.72801969  0.63186621  0.80689352    -0.20300
C1307       C  0.73573921  0.59404048  0.81120592     0.20400
C1308       C  0.72934687  0.57150650  0.84185682    -0.03200
C1309       C  0.71541250  0.58721114  0.86818763    -0.06300
C1310       C  0.70821732  0.62571141  0.86422822     0.20600
C1311       C  0.70898295  0.56462924  0.89882725     0.18800
C1312       C  0.71652538  0.52665643  0.90286510    -0.17700
C1313       C  0.73054229  0.51129449  0.87704667    -0.20000
C1314       C  0.73712326  0.53352212  0.84656194     0.23900
C1315       C  0.75161232  0.51870017  0.82113651    -0.33000
C1316       C  0.75834922  0.54123744  0.79089302     0.01000
C1317       C  0.74998852  0.57862490  0.78574499    -0.24300
C1318       C  0.69516372  0.64173280  0.89155742    -0.28900
C1319       C  0.68877525  0.61937490  0.92216549     0.06700
C1320       C  0.69544553  0.58067720  0.92527737    -0.27600
H1321       H  0.70900094  0.67715118  0.82971718     0.11400
H1322       H  0.73272915  0.64948746  0.78340661     0.12500
H1323       H  0.71177471  0.50898403  0.92628915     0.11600
H1324       H  0.73633293  0.48207713  0.88105285     0.10800
H1325       H  0.75802930  0.49002254  0.82556684     0.16200
H1326       H  0.75458652  0.59590574  0.76195766     0.12100
H1327       H  0.68995889  0.67155003  0.88908978     0.15000
H1328       H  0.69069201  0.56355223  0.94911674     0.14800
C1329       C  0.83560201  0.55867873  0.59931240    -0.18100
C1330       C  0.84122531  0.58669301  0.57314630    -0.20300
C1331       C  0.84360779  0.62528783  0.58413587     0.20400
C1332       C  0.84092488  0.63557327  0.62207376    -0.03200
C1333       C  0.83466528  0.60749176  0.64825123    -0.06300
C1334       C  0.83183190  0.56899575  0.63671868     0.20600
C1335       C  0.83048644  0.61824925  0.68558676     0.18800
C1336       C  0.83390316  0.65645723  0.69698708    -0.17700
C1337       C  0.84050055  0.68417150  0.67121394    -0.20000
C1338       C  0.84358037  0.67425318  0.63352296     0.20300
C1339       C  0.84835529  0.70255404  0.60678363    -0.33000
C1340       C  0.84983126  0.69268216  0.56881471     0.01000
C1341       C  0.84781085  0.65405331  0.55768355    -0.24300
C1342       C  0.82401832  0.54203865  0.66210608    -0.28900
C1343       C  0.81704638  0.55373787  0.69786908     0.06700
C1344       C  0.82184621  0.59128566  0.71022294    -0.27600
H1345       H  0.83343103  0.52923715  0.58998411     0.11400
H1346       H  0.84334012  0.57830843  0.54416546     0.12500
H1347       H  0.83092122  0.66519580  0.72562445     0.11600
H1348       H  0.84255361  0.71366030  0.68052493     0.10800
H1349       H  0.84975763  0.73254915  0.61512004     0.16200
H1350       H  0.84894345  0.64668351  0.52827042     0.12100
H1351       H  0.82167619  0.51264536  0.65278124     0.15000
H1352       H  0.81826634  0.60026910  0.73850837     0.14800
C1353       C  0.78836964  0.31010001  0.83332048    -0.18100
C1354       C  0.78452105  0.34055259  0.80851364    -0.20300
C1355       C  0.79653276  0.37361550  0.80855194     0.20400
C1356       C  0.81279303  0.37579990  0.83332728    -0.03200
C1357       C  0.81668171  0.34500813  0.85843360    -0.06300
C1358       C  0.80429406  0.31215749  0.85860800     0.20600
C1359       C  0.83276837  0.34733359  0.88364524     0.18800
C1360       C  0.84482142  0.38037976  0.88347671    -0.17700
C1361       C  0.84095885  0.41088696  0.85860255    -0.20000
C1362       C  0.82496799  0.40895138  0.83339878     0.20300
C1363       C  0.82071758  0.43974521  0.80871277    -0.33000
C1364       C  0.80421065  0.43805354  0.78444309     0.01000
C1365       C  0.79231371  0.40472932  0.78460393    -0.24300
C1366       C  0.80786105  0.28218842  0.88435905    -0.28900
C1367       C  0.82380857  0.28429794  0.90977700     0.06700
C1368       C  0.83633595  0.31685377  0.90890145    -0.27600
H1369       H  0.77876145  0.28505445  0.83294037     0.11400
H1370       H  0.77202252  0.33839123  0.78950196     0.12500
H1371       H  0.85719332  0.38273471  0.90274692     0.11600
H1372       H  0.85042850  0.43610857  0.85922878     0.10800
H1373       H  0.82982985  0.46546645  0.80925779     0.16200
H1374       H  0.77961832  0.40291036  0.76626278     0.12100
H1375       H  0.79817110  0.25722910  0.88468797     0.15000
H1376       H  0.84854527  0.31896631  0.92857377     0.14800
C1377       C  0.71675243  0.51988153  0.09982675    -0.18100
C1378       C  0.73095683  0.50384174  0.12413788    -0.20300
C1379       C  0.73717772  0.52469456  0.15543123     0.20400
C1380       C  0.72898543  0.56203685  0.16238833    -0.03200
C1381       C  0.71488685  0.57843128  0.13761993    -0.06300
C1382       C  0.70870706  0.55717510  0.10623826     0.20600
C1383       C  0.70725309  0.61634274  0.14390803     0.18800
C1384       C  0.71330647  0.63704726  0.17537551    -0.17700
C1385       C  0.72703015  0.62052128  0.20026812    -0.20000
C1386       C  0.73508143  0.58323920  0.19380581     0.20300
C1387       C  0.74930234  0.56699523  0.21798918    -0.33000
C1388       C  0.75789261  0.53015509  0.21078996     0.01000
C1389       C  0.75165176  0.50909001  0.17957974    -0.24300
C1390       C  0.69493714  0.57398178  0.08142514    -0.28900
C1391       C  0.68790328  0.61211212  0.08702445     0.06700
C1392       C  0.69399804  0.63313451  0.11823187    -0.27600
H1393       H  0.71223134  0.50329335  0.07577091     0.11400
H1394       H  0.73712140  0.47515667  0.11840977     0.12500
H1395       H  0.70751294  0.66609922  0.18061491     0.11600
H1396       H  0.73156365  0.63712034  0.22431243     0.10800
H1397       H  0.75364923  0.58312725  0.24244771     0.16200
H1398       H  0.75838610  0.48094115  0.17350344     0.12100
H1399       H  0.69032494  0.55810208  0.05694832     0.15000
H1400       H  0.68846477  0.66259034  0.12232408     0.14800
C1401       C  0.73470822  0.35476838  0.32537616    -0.18100
C1402       C  0.71998853  0.33830070  0.34862113    -0.20300
C1403       C  0.70812662  0.36166328  0.37274567     0.20400
C1404       C  0.71081975  0.40210656  0.37279692    -0.03200
C1405       C  0.72589178  0.41858704  0.34995268    -0.06300
C1406       C  0.73799080  0.39480273  0.32623234     0.20600
C1407       C  0.72916613  0.45880027  0.35157227     0.18800
C1408       C  0.71698899  0.48233945  0.37483761    -0.17700
C1409       C  0.70185570  0.46611270  0.39697479    -0.20000
C1410       C  0.69882712  0.42606541  0.39646327     0.20300
C1411       C  0.68443455  0.40952350  0.42014169    -0.33000
C1412       C  0.68227783  0.36922003  0.42158525     0.01000
C1413       C  0.69400705  0.34536176  0.39754774    -0.24300
C1414       C  0.75344870  0.41145270  0.30462059    -0.28900
C1415       C  0.75717222  0.45120860  0.30750146     0.06700
C1416       C  0.74483834  0.47473317  0.33050830    -0.27600
H1417       H  0.74379901  0.33609460  0.30728286     0.11400
H1418       H  0.71803548  0.30723531  0.34802943     0.12500
H1419       H  0.71931433  0.51327391  0.37620542     0.11600
H1420       H  0.69276591  0.48481183  0.41505924     0.10800
H1421       H  0.67559371  0.42796351  0.43892099     0.16200
H1422       H  0.69231420  0.31421751  0.39853185     0.12100
H1423       H  0.76302711  0.39343298  0.28675632     0.15000
H1424       H  0.74759183  0.50554893  0.33212741     0.14800
C1425       C  0.84168122  0.67128900  0.30955058    -0.18100
C1426       C  0.83547903  0.64057019  0.28722091    -0.20300
C1427       C  0.83158797  0.60423020  0.30308586     0.20400
C1428       C  0.83488667  0.59828388  0.34148110    -0.03200
C1429       C  0.84154761  0.62904395  0.36390048    -0.06300
C1430       C  0.84441125  0.66602827  0.34802541     0.20600
C1431       C  0.84441543  0.62324185  0.40250452     0.18800
C1432       C  0.84107802  0.58661177  0.41814074    -0.17700
C1433       C  0.83432091  0.55626581  0.39596032    -0.20000
C1434       C  0.83083351  0.56202031  0.35774995     0.20300
C1435       C  0.82227424  0.53287137  0.33609255    -0.33000
C1436       C  0.81686598  0.53988119  0.29863815     0.01000
C1437       C  0.82330291  0.57455752  0.28170034    -0.24300
C1438       C  0.84902129  0.69739007  0.37119999    -0.28900
C1439       C  0.85129450  0.69184793  0.40975030     0.06700
C1440       C  0.84960857  0.65461191  0.42505910    -0.27600
H1441       H  0.84392663  0.69938499  0.29685702     0.11400
H1442       H  0.83302172  0.64564313  0.25775582     0.12500
H1443       H  0.84317053  0.58171068  0.44774776     0.11600
H1444       H  0.83128243  0.52859141  0.40892226     0.10800
H1445       H  0.81901540  0.50537244  0.34912207     0.16200
H1446       H  0.82059421  0.57964955  0.25233294     0.12100
H1447       H  0.85009638  0.72628910  0.35960484     0.15000
H1448       H  0.85099332  0.65065208  0.45497751     0.14800
C1449       C  0.78573951  0.30719994  0.14734318    -0.18100
C1450       C  0.78163127  0.33604368  0.17391246    -0.20300
C1451       C  0.79483344  0.36699877  0.17819951     0.20400
C1452       C  0.81242155  0.36880466  0.15570430    -0.03200
C1453       C  0.81671876  0.33936273  0.12917071    -0.06300
C1454       C  0.80321848  0.30860575  0.12483156     0.20600
C1455       C  0.83442473  0.34084334  0.10685959     0.18800
C1456       C  0.84753529  0.37198570  0.11106520    -0.17700
C1457       C  0.84315670  0.40137783  0.13707669    -0.20000
C1458       C  0.82566670  0.40004247  0.15962676     0.20300
C1459       C  0.82110729  0.42947319  0.18578336    -0.33000
C1460       C  0.80353004  0.42791421  0.20834528     0.01000
C1461       C  0.79065554  0.39619826  0.20450791    -0.24300
C1462       C  0.80731264  0.27998691  0.09784011    -0.28900
C1463       C  0.82491548  0.28117196  0.07542362     0.06700
C1464       C  0.83854469  0.31146589  0.08044768    -0.27600
H1465       H  0.77522736  0.28376634  0.14439739     0.11400
H1466       H  0.76803672  0.33427567  0.19095708     0.12500
H1467       H  0.86114686  0.37373166  0.09407059     0.11600
H1468       H  0.85348910  0.42515430  0.13959649     0.10800
H1469       H  0.83104986  0.45388547  0.18799477     0.16200
H1470       H  0.77735403  0.39383975  0.22215492     0.12100
H1471       H  0.79675939  0.25669524  0.09423446     0.15000
H1472       H  0.85201250  0.31283111  0.06298564     0.14800
loop_ 
_geom_bond_atom_site_label_1 
_geom_bond_atom_site_label_2 
_geom_bond_distance 
_geom_bond_site_symmetry_2 
_ccdc_geom_bond_type 
C1            C2   1.542       .  S
C1            C7   1.541       .  S
C1            C5   1.542       .  S
C1         C1436   1.537       .  S
C2            H9   1.085       .  S
C2            C3   1.361       .  D
C3            C4   1.529       .  S
C3         C1415   1.473       .  S
C4            C8   1.535       .  S
C4            C6   1.543       .  S
C4           H10   1.108       .  S
C5           H11   1.085       .  S
C5            C6   1.376       .  D
C6         C1460   1.495       .  S
C7           H12   1.084       .  S
C7            C8   1.364       .  D
C8         C1388   1.482       .  S
C13          C14   1.542       .  S
C13          C19   1.542       .  S
C13          C17   1.543       .  S
C13        C1343   1.537       .  S
C14          H21   1.082       .  S
C14          C15   1.368       .  D
C15          C16   1.541       .  S
C15        C1316   1.488       .  S
C16          C20   1.531       .  S
C16          C18   1.543       .  S
C16          H22   1.109       .  S
C17          H23   1.086       .  S
C17          C18   1.374       .  D
C18        C1364   1.494       .  S
C19          H24   1.086       .  S
C19          C20   1.358       .  D
C20        C1292   1.475       .  S
Fe25         O41   2.071       .  S
Fe25         O31   2.053       .  S
Fe25         O38   2.068       .  S
Fe25         O30   2.081       .  S
Fe25         O36   1.961       .  S
Fe26         O29   2.067       .  S
Fe26         O33   2.049       .  S
Fe26         O37   2.067       .  S
Fe26         O42   2.039       .  S
Fe26         O36   1.955       .  S
Fe27         O45   2.075       .  S
Fe27         O32   2.081       .  S
Fe27         O39   2.089       .  S
Fe27         O28   2.064       .  S
Fe27         O36   1.972       .  S
O28          C35   1.270       .  A
O29          C43   1.274       .  A
O30          C35   1.273       .  A
O31          C34   1.264       .  A
O32          C44   1.269       .  A
O33          C46   1.265       .  A
C34          O39   1.270       .  A
C34        C1439   1.469       .  S
C35        C1340   1.466       .  S
O37          C40   1.271       .  A
O38          C40   1.271       .  A
C40        C1247   1.479       .  S
O41          C46   1.270       .  A
O42          C44   1.263       .  A
C43          O45   1.275       .  A
C43        C1199   1.485       .  S
C44        C1223   1.477       .  S
C46        C1271   1.477       .  S
Fe47         O63   2.067   1_556  S
Fe47         O53   2.063   1_556  S
Fe47         O60   2.067       .  S
Fe47         O52   2.072       .  S
Fe47         O58   1.957       .  S
Fe48         O51   2.040   1_556  S
Fe48         O55   2.083   1_556  S
Fe48         O59   2.063       .  S
Fe48         O64   2.064       .  S
Fe48         O58   1.972       .  S
Fe49         O67   2.089   1_556  S
Fe49         O54   2.081       .  S
Fe49         O61   2.079   1_556  S
Fe49         O50   2.080       .  S
Fe49         O58   1.978       .  S
O50          C57   1.273       .  A
O51          C65   1.270       .  A
O52          C57   1.273       .  A
O53          C56   1.268       .  A
O54          C66   1.270       .  A
O55          C68   1.268       .  A
C56          O61   1.271       .  A
C56        C1463   1.484       .  S
C57        C1367   1.487       .  S
O59          C62   1.269       .  A
O60          C62   1.272       .  A
C62        C1148   1.483       .  S
O63          C68   1.269       .  A
O64          C66   1.268       .  A
C65          O67   1.275       .  A
C65        C1100   1.479       .  S
C66        C1124   1.477       .  S
C68        C1172   1.482       .  S
C69          C70   1.529       .  S
C69          C75   1.533       .  S
C69          C73   1.545       .  S
C69        C1220   1.528       .  S
C70          H77   1.087       .  S
C70          C71   1.360   1_665  D
C71          C72   1.539   1_455  S
C71        C1055   1.469       .  S
C72          C76   1.541       .  S
C72          C74   1.552   1_645  S
C72          H78   1.109   1_655  S
C73          H79   1.080       .  S
C73          C74   1.375   1_655  D
C74        C1079   1.505       .  S
C75          H80   1.087       .  S
C75          C76   1.360   1_565  D
C76        C1127   1.476       .  S
Fe81         O97   2.073   1_556  S
Fe81         O87   2.064   1_556  S
Fe81         O94   2.063       .  S
Fe81         O86   2.060       .  S
Fe81         O92   1.978       .  S
Fe82         O85   2.052       .  S
Fe82         O89   2.065       .  S
Fe82         O93   2.060   1_554  S
Fe82         O98   2.071   1_554  S
Fe82         O92   1.980   1_554  S
Fe83        O101   2.088   1_556  S
Fe83         O88   2.100       .  S
Fe83         O95   2.100   1_556  S
Fe83         O84   2.100       .  S
Fe83         O92   1.989       .  S
O84          C91   1.275       .  A
O85          C99   1.265       .  A
O86          C91   1.268       .  A
O87          C90   1.271       .  A
O88         C100   1.278       .  A
O89         C102   1.269       .  A
C90          O95   1.276       .  A
C90        C1028   1.492       .  S
C91        C1007   1.494       .  S
O93          C96   1.268       .  A
O94          C96   1.268       .  A
C96         C956   1.479       .  S
O97         C102   1.271       .  A
O98         C100   1.272       .  A
C99         O101   1.272       .  A
C99         C980   1.481       .  S
C100       C1076   1.499       .  S
C102        C932   1.486       .  S
Fe103       O119   2.064       .  S
Fe103       O109   2.062       .  S
Fe103       O116   2.060       .  S
Fe103       O108   2.059       .  S
Fe103       O114   1.957       .  S
Fe104       O107   2.050       .  S
Fe104       O111   2.070       .  S
Fe104       O115   2.066       .  S
Fe104       O120   2.051       .  S
Fe104       O114   1.961       .  S
Fe105       O123   2.087       .  S
Fe105       O110   2.078       .  S
Fe105       O117   2.078       .  S
Fe105       O106   2.097       .  S
Fe105       O114   1.973       .  S
O106        C113   1.276       .  A
O107        C121   1.267       .  A
O108        C113   1.271       .  A
O109        C112   1.266       .  A
O110        C122   1.272       .  A
O111        C124   1.272       .  A
C112        O117   1.268       .  A
C112        C884   1.471       .  S
C113        C908   1.473       .  S
O115        C118   1.265       .  A
O116        C118   1.265       .  A
C118        C812   1.478       .  S
O119        C124   1.274       .  A
O120        C122   1.269       .  A
C121        O123   1.274       .  A
C121        C863   1.487       .  S
C122       C1052   1.481       .  S
C124        C839   1.479       .  S
C125        C126   1.541       .  S
C125        C131   1.543       .  S
C125        C129   1.544       .  S
C125        C911   1.541       .  S
C126        H133   1.081       .  S
C126        C127   1.365       .  D
C127        C128   1.539       .  S
C127        C764   1.489       .  S
C128        C132   1.535       .  S
C128        C130   1.544       .  S
C128        H134   1.109       .  S
C129        H135   1.085       .  S
C129        C130   1.375       .  D
C130       C1004   1.501       .  S
C131        H136   1.086       .  S
C131        C132   1.364       .  D
C132        C788   1.478       .  S
C137        C138   1.544       .  S
C137        C143   1.539       .  S
C137        C141   1.537       .  S
C137        C887   1.534       .  S
C138        H145   1.083       .  S
C138        C139   1.360       .  D
C139        C140   1.535       .  S
C139        C719   1.476       .  S
C140        C144   1.541       .  S
C140        C142   1.550       .  S
C140        H146   1.108       .  S
C141        H147   1.085       .  S
C141        C142   1.373       .  D
C142       C1031   1.499       .  S
C143        H148   1.085       .  S
C143        C144   1.366       .  D
C144        C743   1.489       .  S
C149        C150   1.528       .  S
C149        C155   1.530   1_545  S
C149        C153   1.541       .  S
C149       C1103   1.523       .  S
C150        H157   1.087       .  S
C150        C151   1.360   1_545  D
C151        C152   1.541       .  S
C151       C1196   1.478       .  S
C152        C156   1.547   1_655  S
C152        C154   1.548   1_665  S
C152        H158   1.110   1_655  S
C153        H159   1.081       .  S
C153        C154   1.373   1_655  D
C154        C860   1.490       .  S
C155        H160   1.087       .  S
C155        C156   1.364   1_655  D
C156        C983   1.484       .  S
Fe161       O177   2.071       .  S
Fe161       O167   2.047       .  S
Fe161       O174   2.073       .  S
Fe161       O166   2.056       .  S
Fe161       O172   1.973       .  S
Fe162       O165   2.049       .  S
Fe162       O169   2.055       .  S
Fe162       O173   2.063       .  S
Fe162       O178   2.041       .  S
Fe162       O172   1.967       .  S
Fe163       O181   2.098       .  S
Fe163       O168   2.108       .  S
Fe163       O175   2.107       .  S
Fe163       O164   2.099       .  S
Fe163       O172   1.992       .  S
O164        C171   1.276       .  A
O165        C179   1.269       .  A
O166        C171   1.269       .  A
O167        C170   1.268       .  A
O168        C180   1.276       .  A
O169        C182   1.265       .  A
C170        O175   1.276       .  A
C170        C668   1.488       .  S
C171        C695   1.493       .  S
O173        C176   1.270       .  A
O174        C176   1.271       .  A
C176        C716   1.486       .  S
O177        C182   1.267       .  A
O178        C180   1.265       .  A
C179        O181   1.277       .  A
C179        C647   1.491       .  S
C180        C620   1.488       .  S
C182        C791   1.484       .  S
Fe183       O199   2.064   1_554  S
Fe183       O189   2.039   1_554  S
Fe183       O196   2.049       .  S
Fe183       O188   2.052       .  S
Fe183       O194   1.966       .  S
Fe184       O187   2.061   1_554  S
Fe184       O191   2.069   1_554  S
Fe184       O195   2.077       .  S
Fe184       O200   2.040       .  S
Fe184       O194   1.973       .  S
Fe185       O203   2.082   1_554  S
Fe185       O190   2.085       .  S
Fe185       O197   2.102   1_554  S
Fe185       O186   2.077       .  S
Fe185       O194   1.986       .  S
O186        C193   1.267       .  A
O187        C201   1.268       .  A
O188        C193   1.264       .  A
O189        C192   1.268       .  A
O190        C202   1.276       .  A
O191        C204   1.269       .  A
C192        O197   1.276       .  A
C192        C572   1.478       .  S
C193        C596   1.468       .  S
O195        C198   1.269       .  A
O196        C198   1.265       .  A
C198        C740   1.481       .  S
O199        C204   1.270       .  A
O200        C202   1.269       .  A
C201        O203   1.271       .  A
C201        C524   1.492       .  S
C202        C548   1.477       .  S
C204        C767   1.485       .  S
C205        C206   1.533       .  S
C205        C211   1.541       .  S
C205        C209   1.543       .  S
C205        C575   1.530       .  S
C206        H213   1.087       .  S
C206        C207   1.362       .  D
C207        C208   1.539       .  S
C207        C959   1.483   1_545  S
C208        C212   1.537       .  S
C208        C210   1.548   1_545  S
C208        H214   1.110   1_545  S
C209        H215   1.085       .  S
C209        C210   1.374   1_545  D
C210        C671   1.494       .  S
C211        H216   1.085       .  S
C211        C212   1.363       .  D
C212        C815   1.479       .  S
C217        C218   1.539       .  S
C217        C223   1.543       .  S
C217        C221   1.539       .  S
C217        C599   1.535       .  S
C218        H225   1.085       .  S
C218        C219   1.366       .  D
C219        C220   1.538   1_545  S
C219        C836   1.489       .  S
C220        C224   1.535       .  S
C220        C222   1.547       .  S
C220        H226   1.108       .  S
C221        H227   1.085       .  S
C221        C222   1.373   1_545  D
C222        C692   1.495       .  S
C223        H228   1.084       .  S
C223        C224   1.362   1_545  D
C224        C935   1.477       .  S
C229        C230   1.527       .  S
C229        C235   1.531       .  S
C229        C233   1.544       .  S
C229        C644   1.529       .  S
C230        H237   1.087       .  S
C230        C231   1.362       .  D
C231        C232   1.546       .  S
C231        C527   1.485       .  S
C232        C236   1.546       .  S
C232        C234   1.550       .  S
C232        H238   1.109       .  S
C233        H239   1.081       .  S
C233        C234   1.374       .  D
C234        C500   1.495       .  S
C235        H240   1.087       .  S
C235        C236   1.364       .  D
C236        C476   1.483       .  S
C241        C242   1.544   1_545  S
C241        C247   1.541       .  S
C241        C245   1.541   1_545  S
C241        C428   1.538       .  S
C242        H249   1.083       .  S
C242        C243   1.361       .  D
C243        C244   1.535       .  S
C243       C1244   1.477       .  S
C244        C248   1.533   1_565  S
C244        C246   1.547       .  S
C244        H250   1.109       .  S
C245        H251   1.085       .  S
C245        C246   1.374       .  D
C246        C452   1.494       .  S
C247        H252   1.086       .  S
C247        C248   1.365       .  D
C248       C1151   1.485       .  S
Fe253       O269   2.084       .  S
Fe253       O259   2.066       .  S
Fe253       O266   2.070       .  S
Fe253       O258   2.063       .  S
Fe253       O264   1.976       .  S
Fe254       O257   2.059       .  S
Fe254       O261   2.039       .  S
Fe254       O265   2.059       .  S
Fe254       O270   2.050       .  S
Fe254       O264   1.970       .  S
Fe255       O273   2.083       .  S
Fe255       O260   2.082       .  S
Fe255       O267   2.083       .  S
Fe255       O256   2.070       .  S
Fe255       O264   1.978       .  S
O256        C263   1.268       .  A
O257        C271   1.269       .  A
O258        C263   1.268       .  A
O259        C262   1.270       .  A
O260        C272   1.270       .  A
O261        C274   1.263       .  A
C262        O267   1.273       .  A
C262        C431   1.473       .  S
C263        C404   1.466       .  S
O265        C268   1.271       .  A
O266        C268   1.270       .  A
C268       C1412   1.474       .  S
O269        C274   1.271       .  A
O270        C272   1.264       .  A
C271        O273   1.273       .  A
C271        C479   1.482       .  S
C272        C380   1.478       .  S
C274       C1295   1.483       .  S
C275        C276   1.542       .  S
C275        C281   1.540       .  S
C275        C279   1.535   1_545  S
C275        C407   1.534       .  S
C276        H283   1.082       .  S
C276        C277   1.368       .  D
C277        C278   1.539   1_545  S
C277       C1175   1.489       .  S
C278        C282   1.534       .  S
C278        C280   1.544       .  S
C278        H284   1.110       .  S
C279        H285   1.086       .  S
C279        C280   1.371       .  D
C280        C356   1.488       .  S
C281        H286   1.086       .  S
C281        C282   1.361   1_545  D
C282       C1268   1.474       .  S
Fe287       O303   2.065   1_554  S
Fe287       O293   2.060   1_554  S
Fe287       O300   2.057       .  S
Fe287       O292   2.050       .  S
Fe287       O298   1.973       .  S
Fe288       O291   2.048   1_554  S
Fe288       O295   2.075   1_554  S
Fe288       O299   2.049       .  S
Fe288       O304   2.072       .  S
Fe288       O298   1.978       .  S
Fe289       O307   2.090   1_554  S
Fe289       O294   2.087       .  S
Fe289       O301   2.086   1_554  S
Fe289       O290   2.099       .  S
Fe289       O298   1.986       .  S
O290        C297   1.277       .  A
O291        C305   1.267       .  A
O292        C297   1.268       .  A
O293        C296   1.267       .  A
O294        C306   1.273       .  A
O295        C308   1.272       .  A
C296        O301   1.271       .  A
C296        C455   1.487       .  S
C297        C359   1.484       .  S
O299        C302   1.263       .  A
O300        C302   1.265       .  A
C302       C1391   1.462       .  S
O303        C308   1.270       .  A
O304        C306   1.271       .  A
C305        O307   1.274       .  A
C305        C503   1.488       .  S
C306        C335   1.489       .  S
C308       C1319   1.475       .  S
C309        C310   1.532       .  S
C309        C315   1.529       .  S
C309        C313   1.540       .  S
C309        C551   1.523       .  S
C310        H317   1.087       .  S
C310        C311   1.363       .  D
C311        C312   1.548       .  S
C311        C332   1.487       .  S
C312        C316   1.550       .  S
C312        C314   1.552       .  S
C312        H318   1.109       .  S
C313        H319   1.080       .  S
C313        C314   1.371       .  D
C314        C383   1.495       .  S
C315        H320   1.087       .  S
C315        C316   1.359       .  D
C316        C623   1.483       .  S
C321        C322   1.401       .  A
C321        C326   1.404       .  A
C321        H337   1.084       .  S
C322        C323   1.404       .  A
C322        H338   1.083       .  S
C323        C333   1.409       .  A
C323        C324   1.413       .  A
C324        C330   1.411       .  A
C324        C325   1.417       .  A
C325        C327   1.413       .  A
C325        C326   1.411       .  A
C326        C334   1.407       .  A
C327        C336   1.410       .  A
C327        C328   1.405       .  A
C328        C329   1.402       .  A
C328        H339   1.083       .  S
C329        C330   1.405       .  A
C329        H340   1.083       .  S
C330        C331   1.407       .  A
C331        C332   1.408       .  A
C331        H341   1.084       .  S
C332        C333   1.405       .  A
C333        H342   1.084       .  S
C334        C335   1.409       .  A
C334        H343   1.085       .  S
C335        C336   1.409       .  A
C336        H344   1.084       .  S
C345        C346   1.400       .  A
C345        C350   1.405       .  A
C345        H361   1.084       .  S
C346        C347   1.404       .  A
C346        H362   1.084       .  S
C347        C357   1.405       .  A
C347        C348   1.411       .  A
C348        C354   1.411       .  A
C348        C349   1.414       .  A
C349        C351   1.413       .  A
C349        C350   1.410       .  A
C350        C358   1.404       .  A
C351        C360   1.406       .  A
C351        C352   1.403       .  A
C352        C353   1.399       .  A
C352        H363   1.084       .  S
C353        C354   1.403       .  A
C353        H364   1.083       .  S
C354        C355   1.404       .  A
C355        C356   1.407       .  A
C355        H365   1.084       .  S
C356        C357   1.407       .  A
C357        H366   1.080       .  S
C358        C359   1.410       .  A
C358        H367   1.085       .  S
C359        C360   1.406       .  A
C360        H368   1.084       .  S
C369        C370   1.398       .  A
C369        C374   1.403       .  A
C369        H385   1.084       .  S
C370        C371   1.404       .  A
C370        H386   1.084       .  S
C371        C381   1.400       .  A
C371        C372   1.409       .  A
C372        C378   1.414       .  A
C372        C373   1.413       .  A
C373        C375   1.409       .  A
C373        C374   1.413       .  A
C374        C382   1.404       .  A
C375        C384   1.403       .  A
C375        C376   1.405       .  A
C376        C377   1.401       .  A
C376        H387   1.083       .  S
C377        C378   1.403       .  A
C377        H388   1.084       .  S
C378        C379   1.407       .  A
C379        C380   1.405       .  A
C379        H389   1.084       .  S
C380        C381   1.407       .  A
C381        H390   1.085       .  S
C382        C383   1.406       .  A
C382        H391   1.083       .  S
C383        C384   1.413       .  A
C384        H392   1.083       .  S
C393        C394   1.399       .  A
C393        C398   1.404       .  A
C393        H409   1.084       .  S
C394        C395   1.403       .  A
C394        H410   1.084       .  S
C395        C405   1.400       .  A
C395        C396   1.411       .  A
C396        C402   1.414       .  A
C396        C397   1.412       .  A
C397        C399   1.409       .  A
C397        C398   1.411       .  A
C398        C406   1.403       .  A
C399        C408   1.403       .  A
C399        C400   1.405       .  A
C400        C401   1.400       .  A
C400        H411   1.083       .  S
C401        C402   1.403       .  A
C401        H412   1.083       .  S
C402        C403   1.406       .  A
C403        C404   1.403       .  A
C403        H413   1.084       .  S
C404        C405   1.402       .  A
C405        H414   1.084       .  S
C406        C407   1.411       .  A
C406        H415   1.084       .  S
C407        C408   1.413       .  A
C408        H416   1.080       .  S
C417        C418   1.398       .  A
C417        C422   1.403       .  A
C417        H433   1.084       .  S
C418        C419   1.404       .  A
C418        H434   1.084       .  S
C419        C429   1.403       .  A
C419        C420   1.410       .  A
C420        C426   1.409       .  A
C420        C421   1.414       .  A
C421        C423   1.414       .  A
C421        C422   1.411       .  A
C422        C430   1.401       .  A
C423        C432   1.410       .  A
C423        C424   1.404       .  A
C424        C425   1.403       .  A
C424        H435   1.083       .  S
C425        C426   1.405       .  A
C425        H436   1.083       .  S
C426        C427   1.408       .  A
C427        C428   1.415       .  A
C427        H437   1.084       .  S
C428        C429   1.412       .  A
C429        H438   1.080       .  S
C430        C431   1.404       .  A
C430        H439   1.084       .  S
C431        C432   1.405       .  A
C432        H440   1.084       .  S
C441        C442   1.399       .  A
C441        C446   1.404       .  A
C441        H457   1.084       .  S
C442        C443   1.403       .  A
C442        H458   1.084       .  S
C443        C453   1.403       .  A
C443        C444   1.411       .  A
C444        C450   1.412       .  A
C444        C445   1.415       .  A
C445        C447   1.413       .  A
C445        C446   1.410       .  A
C446        C454   1.403       .  A
C447        C456   1.410       .  A
C447        C448   1.405       .  A
C448        C449   1.403       .  A
C448        H459   1.083       .  S
C449        C450   1.405       .  A
C449        H460   1.084       .  S
C450        C451   1.409       .  A
C451        C452   1.410       .  A
C451        H461   1.084       .  S
C452        C453   1.407       .  A
C453        H462   1.084       .  S
C454        C455   1.409       .  A
C454        H463   1.084       .  S
C455        C456   1.408       .  A
C456        H464   1.084       .  S
C465        C466   1.401       .  A
C465        C470   1.404       .  A
C465        H481   1.084       .  S
C466        C467   1.404       .  A
C466        H482   1.083       .  S
C467        C477   1.407       .  A
C467        C468   1.413       .  A
C468        C474   1.411       .  A
C468        C469   1.414       .  A
C469        C471   1.412       .  A
C469        C470   1.411       .  A
C470        C478   1.405       .  A
C471        C480   1.403       .  A
C471        C472   1.403       .  A
C472        C473   1.399       .  A
C472        H483   1.084       .  S
C473        C474   1.403       .  A
C473        H484   1.084       .  S
C474        C475   1.402       .  A
C475        C476   1.406       .  A
C475        H485   1.085       .  S
C476        C477   1.405       .  A
C477        H486   1.082       .  S
C478        C479   1.408       .  A
C478        H487   1.084       .  S
C479        C480   1.407       .  A
C480        H488   1.084       .  S
C489        C490   1.401       .  A
C489        C494   1.404       .  A
C489        H505   1.084       .  S
C490        C491   1.405       .  A
C490        H506   1.083       .  S
C491        C501   1.404       .  A
C491        C492   1.409       .  A
C492        C498   1.412       .  A
C492        C493   1.414       .  A
C493        C495   1.409       .  A
C493        C494   1.413       .  A
C494        C502   1.408       .  A
C495        C504   1.400       .  A
C495        C496   1.404       .  A
C496        C497   1.398       .  A
C496        H507   1.084       .  S
C497        C498   1.403       .  A
C497        H508   1.084       .  S
C498        C499   1.404       .  A
C499        C500   1.407       .  A
C499        H509   1.081       .  S
C500        C501   1.411       .  A
C501        H510   1.083       .  S
C502        C503   1.408       .  A
C502        H511   1.084       .  S
C503        C504   1.411       .  A
C504        H512   1.084       .  S
C513        C514   1.397       .  A
C513        C518   1.403       .  A
C513        H529   1.084       .  S
C514        C515   1.404       .  A
C514        H530   1.083       .  S
C515        C525   1.402       .  A
C515        C516   1.411       .  A
C516        C522   1.411       .  A
C516        C517   1.415       .  A
C517        C519   1.414       .  A
C517        C518   1.410       .  A
C518        C526   1.399       .  A
C519        C528   1.412       .  A
C519        C520   1.405       .  A
C520        C521   1.403       .  A
C520        H531   1.084       .  S
C521        C522   1.405       .  A
C521        H532   1.083       .  S
C522        C523   1.410       .  A
C523        C524   1.410       .  A
C523        H533   1.084       .  S
C524        C525   1.410       .  A
C525        H534   1.084       .  S
C526        C527   1.406       .  A
C526        H535   1.085       .  S
C527        C528   1.406       .  A
C528        H536   1.084       .  S
C537        C538   1.394       .  A
C537        C542   1.401       .  A
C537        H553   1.084       .  S
C538        C539   1.402       .  A
C538        H554   1.084       .  S
C539        C549   1.394       .  A
C539        C540   1.409       .  A
C540        C546   1.412       .  A
C540        C541   1.409       .  A
C541        C543   1.410       .  A
C541        C542   1.409       .  A
C542        C550   1.394       .  A
C543        C552   1.405       .  A
C543        C544   1.405       .  A
C544        C545   1.400       .  A
C544        H555   1.084       .  S
C545        C546   1.403       .  A
C545        H556   1.083       .  S
C546        C547   1.405       .  A
C547        C548   1.406       .  A
C547        H557   1.084       .  S
C548        C549   1.407       .  A
C549        H558   1.084       .  S
C550        C551   1.408       .  A
C550        H559   1.085       .  S
C551        C552   1.413       .  A
C552        H560   1.078       .  S
C561        C562   1.395       .  A
C561        C566   1.403       .  A
C561        H577   1.084       .  S
C562        C563   1.402       .  A
C562        H578   1.084       .  S
C563        C573   1.396       .  A
C563        C564   1.410       .  A
C564        C570   1.414       .  A
C564        C565   1.414       .  A
C565        C567   1.410       .  A
C565        C566   1.409       .  A
C566        C574   1.398       .  A
C567        C576   1.410       .  A
C567        C568   1.406       .  A
C568        C569   1.404       .  A
C568        H579   1.083       .  S
C569        C570   1.405       .  A
C569        H580   1.083       .  S
C570        C571   1.413       .  A
C571        C572   1.408       .  A
C571        H581   1.084       .  S
C572        C573   1.405       .  A
C573        H582   1.085       .  S
C574        C575   1.412       .  A
C574        H583   1.081       .  S
C575        C576   1.413       .  A
C576        H584   1.083       .  S
C585        C586   1.401       .  A
C585        C590   1.405       .  A
C585        H601   1.082       .  S
C586        C587   1.404       .  A
C586        H602   1.084       .  S
C587        C597   1.407       .  A
C587        C588   1.413       .  A
C588        C594   1.411       .  A
C588        C589   1.413       .  A
C589        C591   1.411       .  A
C589        C590   1.409       .  A
C590        C598   1.405       .  A
C591        C600   1.404       .  A
C591        C592   1.403       .  A
C592        C593   1.398       .  A
C592        H603   1.084       .  S
C593        C594   1.403       .  A
C593        H604   1.083       .  S
C594        C595   1.402       .  A
C595        C596   1.402       .  A
C595        H605   1.085       .  S
C596        C597   1.404       .  A
C597        H606   1.085       .  S
C598        C599   1.414       .  A
C598        H607   1.083       .  S
C599        C600   1.411       .  A
C600        H608   1.081       .  S
C609        C610   1.405       .  A
C609        C614   1.406       .  A
C609        H625   1.083       .  S
C610        C611   1.405       .  A
C610        H626   1.083       .  S
C611        C621   1.416       .  A
C611        C612   1.415       .  A
C612        C618   1.408       .  A
C612        C613   1.417       .  A
C613        C615   1.413       .  A
C613        C614   1.412       .  A
C614        C622   1.412       .  A
C615        C624   1.403       .  A
C615        C616   1.403       .  A
C616        C617   1.398       .  A
C616        H627   1.084       .  S
C617        C618   1.404       .  A
C617        H628   1.084       .  S
C618        C619   1.399       .  A
C619        C620   1.410       .  A
C619        H629   1.085       .  S
C620        C621   1.408       .  A
C621        H630   1.084       .  S
C622        C623   1.407       .  A
C622        H631   1.084       .  S
C623        C624   1.405       .  A
C624        H632   1.085       .  S
C633        C634   1.402       .  A
C633        C638   1.404       .  A
C633        H649   1.083       .  S
C634        C635   1.405       .  A
C634        H650   1.084       .  S
C635        C645   1.408       .  A
C635        C636   1.410       .  A
C636        C642   1.409       .  A
C636        C637   1.413       .  A
C637        C639   1.409       .  A
C637        C638   1.413       .  A
C638        C646   1.411       .  A
C639        C648   1.398       .  A
C639        C640   1.403       .  A
C640        C641   1.396       .  A
C640        H651   1.084       .  S
C641        C642   1.402       .  A
C641        H652   1.084       .  S
C642        C643   1.398       .  A
C643        C644   1.410       .  A
C643        H653   1.085       .  S
C644        C645   1.413       .  A
C645        H654   1.079       .  S
C646        C647   1.409       .  A
C646        H655   1.084       .  S
C647        C648   1.411       .  A
C648        H656   1.084       .  S
C657        C658   1.398       .  A
C657        C662   1.403       .  A
C657        H673   1.083       .  S
C658        C659   1.403       .  A
C658        H674   1.084       .  S
C659        C669   1.401       .  A
C659        C660   1.410       .  A
C660        C666   1.413       .  A
C660        C661   1.415       .  A
C661        C663   1.411       .  A
C661        C662   1.410       .  A
C662        C670   1.402       .  A
C663        C672   1.409       .  A
C663        C664   1.405       .  A
C664        C665   1.403       .  A
C664        H675   1.083       .  S
C665        C666   1.405       .  A
C665        H676   1.083       .  S
C666        C667   1.412       .  A
C667        C668   1.410       .  A
C667        H677   1.084       .  S
C668        C669   1.409       .  A
C669        H678   1.085       .  S
C670        C671   1.406       .  A
C670        H679   1.072       .  S
C671        C672   1.410       .  A
C672        H680   1.084       .  S
C681        C682   1.404       .  A
C681        C686   1.405       .  A
C681        H697   1.083       .  S
C682        C683   1.406       .  A
C682        H698   1.084       .  S
C683        C693   1.410       .  A
C683        C684   1.410       .  A
C684        C690   1.412       .  A
C684        C685   1.416       .  A
C685        C687   1.408       .  A
C685        C686   1.414       .  A
C686        C694   1.414       .  A
C687        C696   1.399       .  A
C687        C688   1.404       .  A
C688        C689   1.397       .  A
C688        H699   1.083       .  S
C689        C690   1.402       .  A
C689        H700   1.084       .  S
C690        C691   1.402       .  A
C691        C692   1.407       .  A
C691        H701   1.083       .  S
C692        C693   1.412       .  A
C693        H702   1.083       .  S
C694        C695   1.410       .  A
C694        H703   1.084       .  S
C695        C696   1.411       .  A
C696        H704   1.084       .  S
C705        C706   1.400       .  A
C705        C710   1.403       .  A
C705        H721   1.083       .  S
C706        C707   1.404       .  A
C706        H722   1.084       .  S
C707        C717   1.406       .  A
C707        C708   1.412       .  A
C708        C714   1.410       .  A
C708        C709   1.413       .  A
C709        C711   1.413       .  A
C709        C710   1.412       .  A
C710        C718   1.404       .  A
C711        C720   1.405       .  A
C711        C712   1.404       .  A
C712        C713   1.399       .  A
C712        H723   1.084       .  S
C713        C714   1.404       .  A
C713        H724   1.084       .  S
C714        C715   1.403       .  A
C715        C716   1.409       .  A
C715        H725   1.084       .  S
C716        C717   1.409       .  A
C717        H726   1.084       .  S
C718        C719   1.402       .  A
C718        H727   1.084       .  S
C719        C720   1.404       .  A
C720        H728   1.085       .  S
C729        C730   1.400       .  A
C729        C734   1.404       .  A
C729        H745   1.084       .  S
C730        C731   1.404       .  A
C730        H746   1.084       .  S
C731        C741   1.404       .  A
C731        C732   1.411       .  A
C732        C738   1.411       .  A
C732        C733   1.411       .  A
C733        C735   1.410       .  A
C733        C734   1.411       .  A
C734        C742   1.405       .  A
C735        C744   1.400       .  A
C735        C736   1.403       .  A
C736        C737   1.397       .  A
C736        H747   1.084       .  S
C737        C738   1.403       .  A
C737        H748   1.084       .  S
C738        C739   1.400       .  A
C739        C740   1.407       .  A
C739        H749   1.084       .  S
C740        C741   1.408       .  A
C741        H750   1.084       .  S
C742        C743   1.407       .  A
C742        H751   1.083       .  S
C743        C744   1.409       .  A
C744        H752   1.083       .  S
C753        C754   1.396       .  A
C753        C758   1.402       .  A
C753        H769   1.083       .  S
C754        C755   1.402       .  A
C754        H770   1.084       .  S
C755        C765   1.398       .  A
C755        C756   1.410       .  A
C756        C762   1.412       .  A
C756        C757   1.412       .  A
C757        C759   1.412       .  A
C757        C758   1.410       .  A
C758        C766   1.398       .  A
C759        C768   1.408       .  A
C759        C760   1.405       .  A
C760        C761   1.402       .  A
C760        H771   1.084       .  S
C761        C762   1.405       .  A
C761        H772   1.083       .  S
C762        C763   1.408       .  A
C763        C764   1.408       .  A
C763        H773   1.083       .  S
C764        C765   1.407       .  A
C765        H774   1.084       .  S
C766        C767   1.407       .  A
C766        H775   1.084       .  S
C767        C768   1.410       .  A
C768        H776   1.084       .  S
C777        C778   1.399       .  A
C777        C782   1.404       .  A
C777        H793   1.084       .  S
C778        C779   1.403       .  A
C778        H794   1.084       .  S
C779        C789   1.405       .  A
C779        C780   1.413       .  A
C780        C786   1.411       .  A
C780        C781   1.412       .  A
C781        C783   1.413       .  A
C781        C782   1.410       .  A
C782        C790   1.401       .  A
C783        C792   1.406       .  A
C783        C784   1.404       .  A
C784        C785   1.400       .  A
C784        H795   1.084       .  S
C785        C786   1.404       .  A
C785        H796   1.084       .  S
C786        C787   1.402       .  A
C787        C788   1.402       .  A
C787        H797   1.081       .  S
C788        C789   1.404       .  A
C789        H798   1.084       .  S
C790        C791   1.408       .  A
C790        H799   1.084       .  S
C791        C792   1.408       .  A
C792        H800   1.084       .  S
C801        C802   1.397       .  A
C801        C806   1.403       .  A
C801        H817   1.083       .  S
C802        C803   1.403       .  A
C802        H818   1.084       .  S
C803        C813   1.399       .  A
C803        C804   1.410       .  A
C804        C810   1.413       .  A
C804        C805   1.412       .  A
C805        C807   1.412       .  A
C805        C806   1.412       .  A
C806        C814   1.401       .  A
C807        C816   1.406       .  A
C807        C808   1.404       .  A
C808        C809   1.401       .  A
C808        H819   1.083       .  S
C809        C810   1.404       .  A
C809        H820   1.084       .  S
C810        C811   1.406       .  A
C811        C812   1.406       .  A
C811        H821   1.084       .  S
C812        C813   1.407       .  A
C813        H822   1.084       .  S
C814        C815   1.404       .  A
C814        H823   1.084       .  S
C815        C816   1.405       .  A
C816        H824   1.084       .  S
C825        C826   1.401       .  A
C825        C830   1.405       .  A
C825        H841   1.084       .  S
C826        C827   1.404       .  A
C826        H842   1.084   1_545  S
C827        C837   1.405       .  A
C827        C828   1.412       .  A
C828        C834   1.409       .  A
C828        C829   1.410       .  A
C829        C831   1.412       .  A
C829        C830   1.410       .  A
C830        C838   1.403       .  A
C831        C840   1.399       .  A
C831        C832   1.401       .  A
C832        C833   1.396       .  A
C832        H843   1.084       .  S
C833        C834   1.403       .  A
C833        H844   1.083       .  S
C834        C835   1.397       .  A
C835        C836   1.408       .  A
C835        H845   1.082       .  S
C836        C837   1.408       .  A
C837        H846   1.082       .  S
C838        C839   1.410       .  A
C838        H847   1.084       .  S
C839        C840   1.404       .  A
C840        H848   1.084       .  S
C849        C850   1.400       .  A
C849        C854   1.404       .  A
C849        H865   1.084       .  S
C850        C851   1.404       .  A
C850        H866   1.084       .  S
C851        C861   1.402       .  A
C851        C852   1.409       .  A
C852        C858   1.412       .  A
C852        C853   1.412       .  A
C853        C855   1.409       .  A
C853        C854   1.412       .  A
C854        C862   1.406       .  A
C855        C864   1.401       .  A
C855        C856   1.404       .  A
C856        C857   1.398       .  A
C856        H867   1.084       .  S
C857        C858   1.403       .  A
C857        H868   1.084   1_545  S
C858        C859   1.403       .  A
C859        C860   1.405       .  A
C859        H869   1.081   1_545  S
C860        C861   1.410       .  A
C861        H870   1.083   1_455  S
C862        C863   1.408       .  A
C862        H871   1.084       .  S
C863        C864   1.410       .  A
C864        H872   1.084       .  S
C873        C874   1.398       .  A
C873        C878   1.404       .  A
C873        H889   1.084       .  S
C874        C875   1.403       .  A
C874        H890   1.084       .  S
C875        C885   1.400       .  A
C875        C876   1.411       .  A
C876        C882   1.414       .  A
C876        C877   1.413       .  A
C877        C879   1.409       .  A
C877        C878   1.410       .  A
C878        C886   1.402       .  A
C879        C888   1.406       .  A
C879        C880   1.405       .  A
C880        C881   1.402       .  A
C880        H891   1.084       .  S
C881        C882   1.404       .  A
C881        H892   1.083       .  S
C882        C883   1.408       .  A
C883        C884   1.404       .  A
C883        H893   1.084       .  S
C884        C885   1.404       .  A
C885        H894   1.085       .  S
C886        C887   1.411       .  A
C886        H895   1.079       .  S
C887        C888   1.413       .  A
C888        H896   1.084       .  S
C897        C898   1.400       .  A
C897        C902   1.405       .  A
C897        H913   1.084       .  S
C898        C899   1.403       .  A
C898        H914   1.083       .  S
C899        C909   1.406       .  A
C899        C900   1.413       .  A
C900        C906   1.412       .  A
C900        C901   1.415       .  A
C901        C903   1.411       .  A
C901        C902   1.409       .  A
C902        C910   1.405       .  A
C903        C912   1.407       .  A
C903        C904   1.404       .  A
C904        C905   1.401       .  A
C904        H915   1.083       .  S
C905        C906   1.404       .  A
C905        H916   1.084       .  S
C906        C907   1.405       .  A
C907        C908   1.404       .  A
C907        H917   1.085       .  S
C908        C909   1.405       .  A
C909        H918   1.084       .  S
C910        C911   1.416       .  A
C910        H919   1.079       .  S
C911        C912   1.412       .  A
C912        H920   1.084       .  S
C921        C922   1.400       .  A
C921        C926   1.404       .  A
C921        H937   1.084       .  S
C922        C923   1.405       .  A
C922        H938   1.084       .  S
C923        C933   1.406       .  A
C923        C924   1.411       .  A
C924        C930   1.411       .  A
C924        C925   1.413       .  A
C925        C927   1.413       .  A
C925        C926   1.412       .  A
C926        C934   1.405       .  A
C927        C936   1.403       .  A
C927        C928   1.403       .  A
C928        C929   1.399       .  A
C928        H939   1.083       .  S
C929        C930   1.404       .  A
C929        H940   1.084       .  S
C930        C931   1.403       .  A
C931        C932   1.408       .  A
C931        H941   1.084       .  S
C932        C933   1.410       .  A
C933        H942   1.084       .  S
C934        C935   1.404       .  A
C934        H943   1.084       .  S
C935        C936   1.403       .  A
C936        H944   1.085       .  S
C945        C946   1.398       .  A
C945        C950   1.404       .  A
C945        H961   1.083       .  S
C946        C947   1.403       .  A
C946        H962   1.084       .  S
C947        C957   1.403       .  A
C947        C948   1.412       .  A
C948        C954   1.410       .  A
C948        C949   1.411       .  A
C949        C951   1.412       .  A
C949        C950   1.410       .  A
C950        C958   1.401       .  A
C951        C960   1.404   1_565  A
C951        C952   1.403   1_565  A
C952        C953   1.399   1_545  A
C952        H963   1.083       .  S
C953        C954   1.404       .  A
C953        H964   1.084   1_565  S
C954        C955   1.401       .  A
C955        C956   1.407       .  A
C955        H965   1.084       .  S
C956        C957   1.407       .  A
C957        H966   1.084       .  S
C958        C959   1.403       .  A
C958        H967   1.072       .  S
C959        C960   1.406   1_565  A
C960        H968   1.084       .  S
C969        C970   1.399       .  A
C969        C974   1.403       .  A
C969        H985   1.084       .  S
C970        C971   1.403       .  A
C970        H986   1.084       .  S
C971        C981   1.405       .  A
C971        C972   1.413       .  A
C972        C978   1.411       .  A
C972        C973   1.414       .  A
C973        C975   1.413       .  A
C973        C974   1.411       .  A
C974        C982   1.403       .  A
C975        C984   1.407       .  A
C975        C976   1.404       .  A
C976        C977   1.401       .  A
C976        H987   1.084       .  S
C977        C978   1.405       .  A
C977        H988   1.084       .  S
C978        C979   1.406       .  A
C979        C980   1.409       .  A
C979        H989   1.085       .  S
C980        C981   1.405       .  A
C981        H990   1.084       .  S
C982        C983   1.407       .  A
C982        H991   1.085   1_455  S
C983        C984   1.405       .  A
C984        H992   1.081       .  S
C993        C994   1.400       .  A
C993        C998   1.405       .  A
C993       H1009   1.084       .  S
C994        C995   1.404       .  A
C994       H1010   1.084       .  S
C995       C1005   1.406       .  A
C995        C996   1.410       .  A
C996       C1002   1.411       .  A
C996        C997   1.418       .  A
C997        C999   1.412       .  A
C997        C998   1.411       .  A
C998       C1006   1.406       .  A
C999       C1008   1.411       .  A
C999       C1000   1.405       .  A
C1000      C1001   1.403       .  A
C1000      H1011   1.083       .  S
C1001      C1002   1.405       .  A
C1001      H1012   1.083       .  S
C1002      C1003   1.410       .  A
C1003      C1004   1.410       .  A
C1003      H1013   1.083       .  S
C1004      C1005   1.410       .  A
C1005      H1014   1.080       .  S
C1006      C1007   1.411       .  A
C1006      H1015   1.084       .  S
C1007      C1008   1.410       .  A
C1008      H1016   1.084       .  S
C1017      C1018   1.404       .  A
C1017      C1022   1.406       .  A
C1017      H1033   1.083       .  S
C1018      C1019   1.405       .  A
C1018      H1034   1.083       .  S
C1019      C1029   1.413       .  A
C1019      C1020   1.413       .  A
C1020      C1026   1.409       .  A
C1020      C1021   1.417       .  A
C1021      C1023   1.412       .  A
C1021      C1022   1.410       .  A
C1022      C1030   1.410       .  A
C1023      C1032   1.406       .  A
C1023      C1024   1.403       .  A
C1024      C1025   1.399       .  A
C1024      H1035   1.084       .  S
C1025      C1026   1.404       .  A
C1025      H1036   1.083       .  S
C1026      C1027   1.403       .  A
C1027      C1028   1.410       .  A
C1027      H1037   1.084       .  S
C1028      C1029   1.410       .  A
C1029      H1038   1.084       .  S
C1030      C1031   1.412       .  A
C1030      H1039   1.083       .  S
C1031      C1032   1.408       .  A
C1032      H1040   1.083       .  S
C1041      C1042   1.401       .  A
C1041      C1046   1.404       .  A
C1041      H1057   1.084       .  S
C1042      C1043   1.404       .  A
C1042      H1058   1.084       .  S
C1043      C1053   1.407       .  A
C1043      C1044   1.413       .  A
C1044      C1050   1.409       .  A
C1044      C1045   1.411       .  A
C1045      C1047   1.413       .  A
C1045      C1046   1.412       .  A
C1046      C1054   1.405       .  A
C1047      C1056   1.400       .  A
C1047      C1048   1.402       .  A
C1048      C1049   1.396       .  A
C1048      H1059   1.084       .  S
C1049      C1050   1.403       .  A
C1049      H1060   1.084       .  S
C1050      C1051   1.397       .  A
C1051      C1052   1.408       .  A
C1051      H1061   1.084       .  S
C1052      C1053   1.408       .  A
C1053      H1062   1.084       .  S
C1054      C1055   1.404       .  A
C1054      H1063   1.085   1_455  S
C1055      C1056   1.400       .  A
C1056      H1064   1.085   1_545  S
C1065      C1066   1.402       .  A
C1065      C1070   1.404       .  A
C1065      H1081   1.083   1_565  S
C1066      C1067   1.405       .  A
C1066      H1082   1.084       .  S
C1067      C1077   1.408       .  A
C1067      C1068   1.409       .  A
C1068      C1074   1.413       .  A
C1068      C1069   1.418       .  A
C1069      C1071   1.409       .  A
C1069      C1070   1.412       .  A
C1070      C1078   1.410       .  A
C1071      C1080   1.407       .  A
C1071      C1072   1.405       .  A
C1072      C1073   1.402       .  A
C1072      H1083   1.084       .  S
C1073      C1074   1.404       .  A
C1073      H1084   1.083       .  S
C1074      C1075   1.411       .  A
C1075      C1076   1.410       .  A
C1075      H1085   1.084       .  S
C1076      C1077   1.413       .  A
C1077      H1086   1.084       .  S
C1078      C1079   1.410       .  A
C1078      H1087   1.082       .  S
C1079      C1080   1.413       .  A
C1080      H1088   1.083       .  S
C1089      C1090   1.402       .  A
C1089      C1094   1.406       .  A
C1089      H1105   1.083       .  S
C1090      C1091   1.405       .  A
C1090      H1106   1.084       .  S
C1091      C1101   1.408       .  A
C1091      C1092   1.412       .  A
C1092      C1098   1.409       .  A
C1092      C1093   1.409       .  A
C1093      C1095   1.409       .  A
C1093      C1094   1.410       .  A
C1094      C1102   1.407       .  A
C1095      C1104   1.393       .  A
C1095      C1096   1.401       .  A
C1096      C1097   1.393       .  A
C1096      H1107   1.084   1_545  S
C1097      C1098   1.401       .  A
C1097      H1108   1.084       .  S
C1098      C1099   1.392       .  A
C1099      C1100   1.406       .  A
C1099      H1109   1.085       .  S
C1100      C1101   1.409       .  A
C1101      H1110   1.084       .  S
C1102      C1103   1.413       .  A
C1102      H1111   1.078       .  S
C1103      C1104   1.407       .  A
C1104      H1112   1.085   1_545  S
C1113      C1114   1.403       .  A
C1113      C1118   1.405       .  A
C1113      H1129   1.084       .  S
C1114      C1115   1.405       .  A
C1114      H1130   1.083       .  S
C1115      C1125   1.411       .  A
C1115      C1116   1.415       .  A
C1116      C1122   1.410       .  A
C1116      C1117   1.414       .  A
C1117      C1119   1.415       .  A
C1117      C1118   1.411       .  A
C1118      C1126   1.406       .  A
C1119      C1128   1.404       .  A
C1119      C1120   1.402       .  A
C1120      C1121   1.397       .  A
C1120      H1131   1.084       .  S
C1121      C1122   1.403       .  A
C1121      H1132   1.084       .  S
C1122      C1123   1.399       .  A
C1123      C1124   1.405       .  A
C1123      H1133   1.085       .  S
C1124      C1125   1.406       .  A
C1125      H1134   1.084       .  S
C1126      C1127   1.408       .  A
C1126      H1135   1.085       .  S
C1127      C1128   1.400       .  A
C1128      H1136   1.085       .  S
C1137      C1138   1.394       .  A
C1137      C1142   1.401       .  A
C1137      H1153   1.084       .  S
C1138      C1139   1.401       .  A
C1138      H1154   1.084       .  S
C1139      C1149   1.394       .  A
C1139      C1140   1.410       .  A
C1140      C1146   1.412       .  A
C1140      C1141   1.410       .  A
C1141      C1143   1.411       .  A
C1141      C1142   1.411       .  A
C1142      C1150   1.396       .  A
C1143      C1152   1.407       .  A
C1143      C1144   1.405       .  A
C1144      C1145   1.403       .  A
C1144      H1155   1.083   1_545  S
C1145      C1146   1.405       .  A
C1145      H1156   1.084       .  S
C1146      C1147   1.408       .  A
C1147      C1148   1.410       .  A
C1147      H1157   1.084       .  S
C1148      C1149   1.406       .  A
C1149      H1158   1.084       .  S
C1150      C1151   1.405       .  A
C1150      H1159   1.084       .  S
C1151      C1152   1.408       .  A
C1152      H1160   1.082   1_545  S
C1161      C1162   1.404   1_565  A
C1161      C1166   1.405   1_565  A
C1161      H1177   1.084       .  S
C1162      C1163   1.406       .  A
C1162      H1178   1.083   1_545  S
C1163      C1173   1.410       .  A
C1163      C1164   1.411       .  A
C1164      C1170   1.412       .  A
C1164      C1165   1.414       .  A
C1165      C1167   1.410       .  A
C1165      C1166   1.413       .  A
C1166      C1174   1.411       .  A
C1167      C1176   1.398       .  A
C1167      C1168   1.403       .  A
C1168      C1169   1.396       .  A
C1168      H1179   1.084       .  S
C1169      C1170   1.402       .  A
C1169      H1180   1.084       .  S
C1170      C1171   1.401       .  A
C1171      C1172   1.404       .  A
C1171      H1181   1.085       .  S
C1172      C1173   1.410       .  A
C1173      H1182   1.084       .  S
C1174      C1175   1.407       .  A
C1174      H1183   1.084   1_545  S
C1175      C1176   1.407       .  A
C1176      H1184   1.084       .  S
C1185      C1186   1.395       .  A
C1185      C1190   1.402       .  A
C1185      H1201   1.084       .  S
C1186      C1187   1.402       .  A
C1186      H1202   1.084   1_565  S
C1187      C1197   1.395       .  A
C1187      C1188   1.410       .  A
C1188      C1194   1.414       .  A
C1188      C1189   1.412       .  A
C1189      C1191   1.411       .  A
C1189      C1190   1.410       .  A
C1190      C1198   1.397       .  A
C1191      C1200   1.409       .  A
C1191      C1192   1.405       .  A
C1192      C1193   1.403       .  A
C1192      H1203   1.083       .  S
C1193      C1194   1.405       .  A
C1193      H1204   1.084       .  S
C1194      C1195   1.410       .  A
C1195      C1196   1.405       .  A
C1195      H1205   1.084       .  S
C1196      C1197   1.404       .  A
C1197      H1206   1.085   1_565  S
C1198      C1199   1.408       .  A
C1198      H1207   1.084       .  S
C1199      C1200   1.410       .  A
C1200      H1208   1.084       .  S
C1209      C1210   1.396       .  A
C1209      C1214   1.402       .  A
C1209      H1225   1.084       .  S
C1210      C1211   1.403       .  A
C1210      H1226   1.083   1_565  S
C1211      C1221   1.397       .  A
C1211      C1212   1.409       .  A
C1212      C1218   1.410       .  A
C1212      C1213   1.411       .  A
C1213      C1215   1.412       .  A
C1213      C1214   1.410       .  A
C1214      C1222   1.397       .  A
C1215      C1224   1.406       .  A
C1215      C1216   1.404       .  A
C1216      C1217   1.401       .  A
C1216      H1227   1.083       .  S
C1217      C1218   1.405       .  A
C1217      H1228   1.084       .  S
C1218      C1219   1.406       .  A
C1219      C1220   1.412       .  A
C1219      H1229   1.078       .  S
C1220      C1221   1.410       .  A
C1221      H1230   1.084   1_565  S
C1222      C1223   1.406       .  A
C1222      H1231   1.085       .  S
C1223      C1224   1.406       .  A
C1224      H1232   1.084       .  S
C1233      C1234   1.400       .  A
C1233      C1238   1.404       .  A
C1233      H1249   1.084       .  S
C1234      C1235   1.403       .  A
C1234      H1250   1.084       .  S
C1235      C1245   1.404       .  A
C1235      C1236   1.412       .  A
C1236      C1242   1.412       .  A
C1236      C1237   1.412       .  A
C1237      C1239   1.411       .  A
C1237      C1238   1.412       .  A
C1238      C1246   1.405       .  A
C1239      C1248   1.402       .  A
C1239      C1240   1.403       .  A
C1240      C1241   1.399       .  A
C1240      H1251   1.084       .  S
C1241      C1242   1.403       .  A
C1241      H1252   1.084       .  S
C1242      C1243   1.403       .  A
C1243      C1244   1.403       .  A
C1243      H1253   1.083       .  S
C1244      C1245   1.404       .  A
C1245      H1254   1.084       .  S
C1246      C1247   1.407       .  A
C1246      H1255   1.084       .  S
C1247      C1248   1.406       .  A
C1248      H1256   1.084       .  S
C1257      C1258   1.398       .  A
C1257      C1262   1.404       .  A
C1257      H1273   1.084       .  S
C1258      C1259   1.403       .  A
C1258      H1274   1.084   1_565  S
C1259      C1269   1.401       .  A
C1259      C1260   1.412       .  A
C1260      C1266   1.412       .  A
C1260      C1261   1.410       .  A
C1261      C1263   1.412       .  A
C1261      C1262   1.410       .  A
C1262      C1270   1.400       .  A
C1263      C1272   1.402       .  A
C1263      C1264   1.403       .  A
C1264      C1265   1.398       .  A
C1264      H1275   1.083       .  S
C1265      C1266   1.402       .  A
C1265      H1276   1.084       .  S
C1266      C1267   1.400       .  A
C1267      C1268   1.400       .  A
C1267      H1277   1.081       .  S
C1268      C1269   1.405       .  A
C1269      H1278   1.085   1_565  S
C1270      C1271   1.408       .  A
C1270      H1279   1.084       .  S
C1271      C1272   1.405       .  A
C1272      H1280   1.084       .  S
C1281      C1282   1.396       .  A
C1281      C1286   1.404       .  A
C1281      H1297   1.084       .  S
C1282      C1283   1.402       .  A
C1282      H1298   1.084       .  S
C1283      C1293   1.399       .  A
C1283      C1284   1.413       .  A
C1284      C1290   1.411       .  A
C1284      C1285   1.411       .  A
C1285      C1287   1.414       .  A
C1285      C1286   1.408       .  A
C1286      C1294   1.396       .  A
C1287      C1296   1.408       .  A
C1287      C1288   1.404       .  A
C1288      C1289   1.401       .  A
C1288      H1299   1.083       .  S
C1289      C1290   1.404       .  A
C1289      H1300   1.083       .  S
C1290      C1291   1.403       .  A
C1291      C1292   1.403       .  A
C1291      H1301   1.079       .  S
C1292      C1293   1.402       .  A
C1293      H1302   1.085       .  S
C1294      C1295   1.410       .  A
C1294      H1303   1.084       .  S
C1295      C1296   1.406       .  A
C1296      H1304   1.084       .  S
C1305      C1306   1.399       .  A
C1305      C1310   1.403       .  A
C1305      H1321   1.084       .  S
C1306      C1307   1.404       .  A
C1306      H1322   1.084       .  S
C1307      C1317   1.401       .  A
C1307      C1308   1.410       .  A
C1308      C1314   1.412       .  A
C1308      C1309   1.412       .  A
C1309      C1311   1.411       .  A
C1309      C1310   1.413       .  A
C1310      C1318   1.404       .  A
C1311      C1320   1.403       .  A
C1311      C1312   1.404       .  A
C1312      C1313   1.399       .  A
C1312      H1323   1.084       .  S
C1313      C1314   1.403       .  A
C1313      H1324   1.084       .  S
C1314      C1315   1.404       .  A
C1315      C1316   1.406       .  A
C1315      H1325   1.084       .  S
C1316      C1317   1.409       .  A
C1317      H1326   1.083       .  S
C1318      C1319   1.405       .  A
C1318      H1327   1.084       .  S
C1319      C1320   1.405       .  A
C1320      H1328   1.085       .  S
C1329      C1330   1.398       .  A
C1329      C1334   1.404       .  A
C1329      H1345   1.083       .  S
C1330      C1331   1.403       .  A
C1330      H1346   1.084       .  S
C1331      C1341   1.401       .  A
C1331      C1332   1.412       .  A
C1332      C1338   1.413       .  A
C1332      C1333   1.412       .  A
C1333      C1335   1.410       .  A
C1333      C1334   1.409       .  A
C1334      C1342   1.402       .  A
C1335      C1344   1.406       .  A
C1335      C1336   1.405       .  A
C1336      C1337   1.401       .  A
C1336      H1347   1.083       .  S
C1337      C1338   1.404       .  A
C1337      H1348   1.084       .  S
C1338      C1339   1.405       .  A
C1339      C1340   1.403       .  A
C1339      H1349   1.084       .  S
C1340      C1341   1.402       .  A
C1341      H1350   1.085       .  S
C1342      C1343   1.412       .  A
C1342      H1351   1.084       .  S
C1343      C1344   1.414       .  A
C1344      H1352   1.081       .  S
C1353      C1354   1.399       .  A
C1353      C1358   1.403       .  A
C1353      H1369   1.084       .  S
C1354      C1355   1.404       .  A
C1354      H1370   1.083       .  S
C1355      C1365   1.401       .  A
C1355      C1356   1.409       .  A
C1356      C1362   1.413       .  A
C1356      C1357   1.415       .  A
C1357      C1359   1.410       .  A
C1357      C1358   1.413       .  A
C1358      C1366   1.405       .  A
C1359      C1368   1.407       .  A
C1359      C1360   1.405       .  A
C1360      C1361   1.402       .  A
C1360      H1371   1.083       .  S
C1361      C1362   1.404       .  A
C1361      H1372   1.083       .  S
C1362      C1363   1.410       .  A
C1363      C1364   1.409       .  A
C1363      H1373   1.084       .  S
C1364      C1365   1.407       .  A
C1365      H1374   1.077       .  S
C1366      C1367   1.408       .  A
C1366      H1375   1.084       .  S
C1367      C1368   1.410       .  A
C1368      H1376   1.084       .  S
C1377      C1378   1.398       .  A
C1377      C1382   1.403       .  A
C1377      H1393   1.084       .  S
C1378      C1379   1.403       .  A
C1378      H1394   1.084       .  S
C1379      C1389   1.401       .  A
C1379      C1380   1.411       .  A
C1380      C1386   1.411       .  A
C1380      C1381   1.409       .  A
C1381      C1383   1.412       .  A
C1381      C1382   1.412       .  A
C1382      C1390   1.401       .  A
C1383      C1392   1.399       .  A
C1383      C1384   1.402       .  A
C1384      C1385   1.397       .  A
C1384      H1395   1.084       .  S
C1385      C1386   1.403       .  A
C1385      H1396   1.084       .  S
C1386      C1387   1.399       .  A
C1387      C1388   1.407       .  A
C1387      H1397   1.083       .  S
C1388      C1389   1.405       .  A
C1389      H1398   1.083       .  S
C1390      C1391   1.403       .  A
C1390      H1399   1.085       .  S
C1391      C1392   1.401       .  A
C1392      H1400   1.085       .  S
C1401      C1402   1.402       .  A
C1401      C1406   1.404       .  A
C1401      H1417   1.084       .  S
C1402      C1403   1.405       .  A
C1402      H1418   1.084       .  S
C1403      C1413   1.406       .  A
C1403      C1404   1.412       .  A
C1404      C1410   1.412       .  A
C1404      C1405   1.410       .  A
C1405      C1407   1.411       .  A
C1405      C1406   1.413       .  A
C1406      C1414   1.406       .  A
C1407      C1416   1.396       .  A
C1407      C1408   1.401       .  A
C1408      C1409   1.395       .  A
C1408      H1419   1.084       .  S
C1409      C1410   1.402       .  A
C1409      H1420   1.084       .  S
C1410      C1411   1.397       .  A
C1411      C1412   1.403       .  A
C1411      H1421   1.085       .  S
C1412      C1413   1.408       .  A
C1413      H1422   1.084       .  S
C1414      C1415   1.404       .  A
C1414      H1423   1.084       .  S
C1415      C1416   1.402       .  A
C1416      H1424   1.085       .  S
C1425      C1426   1.400       .  A
C1425      C1430   1.403       .  A
C1425      H1441   1.083       .  S
C1426      C1427   1.404       .  A
C1426      H1442   1.084       .  S
C1427      C1437   1.404       .  A
C1427      C1428   1.410       .  A
C1428      C1434   1.410       .  A
C1428      C1429   1.413       .  A
C1429      C1431   1.412       .  A
C1429      C1430   1.413       .  A
C1430      C1438   1.406       .  A
C1431      C1440   1.403       .  A
C1431      C1432   1.403       .  A
C1432      C1433   1.399       .  A
C1432      H1443   1.084       .  S
C1433      C1434   1.404       .  A
C1433      H1444   1.083       .  S
C1434      C1435   1.404       .  A
C1435      C1436   1.413       .  A
C1435      H1445   1.082       .  S
C1436      C1437   1.413       .  A
C1437      H1446   1.083       .  S
C1438      C1439   1.403       .  A
C1438      H1447   1.084       .  S
C1439      C1440   1.404       .  A
C1440      H1448   1.085       .  S
C1449      C1450   1.398       .  A
C1449      C1454   1.403       .  A
C1449      H1465   1.084       .  S
C1450      C1451   1.404       .  A
C1450      H1466   1.084       .  S
C1451      C1461   1.402       .  A
C1451      C1452   1.410       .  A
C1452      C1458   1.412       .  A
C1452      C1453   1.414       .  A
C1453      C1455   1.412       .  A
C1453      C1454   1.411       .  A
C1454      C1462   1.403       .  A
C1455      C1464   1.408       .  A
C1455      C1456   1.405       .  A
C1456      C1457   1.402       .  A
C1456      H1467   1.083       .  S
C1457      C1458   1.405       .  A
C1457      H1468   1.083       .  S
C1458      C1459   1.408       .  A
C1459      C1460   1.410       .  A
C1459      H1469   1.083       .  S
C1460      C1461   1.409       .  A
C1461      H1470   1.081       .  S
C1462      C1463   1.408       .  A
C1462      H1471   1.085       .  S
C1463      C1464   1.408       .  A
C1464      H1472   1.084       .  S
