geometry optimzed in LAMMPS
_audit_creation_date              2020-11-30 
_audit_creation_method            'lammps2cif' 
_symmetry_space_group_name_H-M    'P1' 
_symmetry_Int_Tables_number       1 
_symmetry_cell_setting            triclinic 
loop_ 
_symmetry_equiv_pos_as_xyz 
  x,y,z 
_cell_length_a                    70.49599914 
_cell_length_b                    70.38139034526472 
_cell_length_c                    70.66627194145038 
_cell_angle_alpha                 89.9841310318346 
_cell_angle_beta                  90.03646618610236 
_cell_angle_gamma                 90.1918723348157 
loop_ 
_atom_site_label 
_atom_site_type_symbol 
_atom_site_fract_x 
_atom_site_fract_y 
_atom_site_fract_z 
_atom_site_charge 
O1          O  0.92138431  0.58115520  0.86921639    -0.57500
C2          C  0.97338139  0.57719139  0.83708580     0.75200
O3          O  0.92634889  0.54191829  0.81936612    -0.58600
C4          C  0.90429741  0.57638473  0.86595291     0.75100
C5          C  0.91891422  0.60215403  0.81136352     0.77500
Cd6        Cd  0.93249364  0.57275693  0.83646078     1.37500
O7          O  0.96375960  0.58046078  0.85189163    -0.57500
O8          O  0.92476499  0.60530423  0.82801137    -0.56300
C9          C  0.93120478  0.53185370  0.83345555     0.77500
O10         O  0.92002529  0.58513870  0.80553701    -0.58600
O11         O  0.96411783  0.57315831  0.82229581    -0.57100
O12         O  0.90053483  0.57071339  0.84938159    -0.57100
O13         O  0.93616836  0.54066593  0.84823343    -0.56300
O14         O  0.00429919  0.58012462  0.85143108    -0.57500
C15         C  0.06234145  0.57338395  0.86588566     0.75200
O16         O  0.04237655  0.54184077  0.81711650    -0.58600
C17         C  0.99426818  0.57692162  0.83687164     0.75100
C18         C  0.04806154  0.60291669  0.81161445     0.77500
Cd19       Cd  0.03505773  0.57196879  0.83545358     1.37500
O20         O  0.04508013  0.57737155  0.86903618    -0.57500
O21         O  0.04450601  0.60489335  0.82905407    -0.56300
C22         C  0.03718164  0.53120913  0.83068809     0.77500
O23         O  0.04550196  0.58645058  0.80475375    -0.58600
O24         O  0.06676344  0.56957678  0.84895125    -0.57100
O25         O  0.00309088  0.57247830  0.82195896    -0.57100
O26         O  0.03121472  0.53943103  0.84538351    -0.56300
O27         O  0.92355958  0.46201874  0.86894725    -0.57500
C28         C  0.97430535  0.46795820  0.83590870     0.75200
O29         O  0.91755289  0.45548897  0.80739619    -0.58600
C30         C  0.90609844  0.46483503  0.86560595     0.75100
C31         C  0.93147180  0.51096630  0.83325876     0.77500
Cd32       Cd  0.93356365  0.47011207  0.83579566     1.37500
O33         O  0.96491812  0.46231229  0.85019846    -0.57500
O34         O  0.93688633  0.50208296  0.84781718    -0.56300
C35         C  0.92465906  0.43915653  0.81016560     0.77500
O36         O  0.92664039  0.50098243  0.81905714    -0.58600
O37         O  0.96488476  0.47420694  0.82198853    -0.57100
O38         O  0.90168352  0.46889213  0.84874852    -0.57100
O39         O  0.93570653  0.43761295  0.82418824    -0.56300
O40         O  0.04570404  0.46012346  0.86539348    -0.57500
C41         C  0.99513796  0.46770663  0.83521355     0.75200
O42         O  0.04210257  0.50059799  0.81574014    -0.58600
C43         C  0.06320065  0.46321472  0.86259420     0.75100
C44         C  0.04289395  0.43951790  0.80521325     0.77500
Cd45       Cd  0.03591064  0.46937767  0.83265567     1.37500
O46         O  0.00529019  0.46180233  0.84882348    -0.57500
O47         O  0.03288950  0.43739742  0.81991648    -0.56300
C48         C  0.03766767  0.51032379  0.83020800     0.77500
O49         O  0.05048669  0.45574864  0.80298288    -0.58600
O50         O  0.00380179  0.47376195  0.82072783    -0.57100
O51         O  0.06798583  0.46782188  0.84596079    -0.57100
O52         O  0.03322784  0.50115251  0.84490924    -0.56300
O53         O  0.87627332  0.57860822  0.93902426    -0.57500
C54         C  0.88940879  0.57635868  0.88056545     0.75200
O55         O  0.84266186  0.54017526  0.90218903    -0.58600
C56         C  0.86237447  0.57362586  0.94932168     0.75100
C57         C  0.83284226  0.60128270  0.90058828     0.77500
Cd58       Cd  0.85979049  0.57124243  0.90851880     1.37500
O59         O  0.89258558  0.58036155  0.89777985    -0.57500
O60         O  0.84771377  0.60353047  0.91036479    -0.56300
C61         C  0.85710699  0.53037970  0.90660868     0.77500
O62         O  0.83015084  0.58480464  0.89377441    -0.58600
O63         O  0.87266729  0.57136808  0.87643528    -0.57100
O64         O  0.84753934  0.56810809  0.94080359    -0.57100
O65         O  0.87177074  0.53944932  0.91153371    -0.56300
O66         O  0.89717654  0.57726591  0.02176023    -0.57500
C67         C  0.86323590  0.57360986  0.97015695     0.75200
O68         O  0.84651865  0.54002345  0.01869138    -0.58600
C69         C  0.89370097  0.57376378  0.03905574     0.75100
C70         C  0.84084891  0.60271405  0.02197294     0.77500
Cd71       Cd  0.86382094  0.57055752  0.01101796     1.37500
O72         O  0.87819648  0.57770503  0.97933487    -0.57500
O73         O  0.85745839  0.60401173  0.01531395    -0.56300
C74         C  0.86019037  0.52986485  0.01282623     0.77500
O75         O  0.83404002  0.58601567  0.02328867    -0.58600
O76         O  0.84886173  0.56890380  0.97980995    -0.57100
O77         O  0.87675916  0.56937627  0.04312078    -0.57100
O78         O  0.87463208  0.53854805  0.00665887    -0.56300
O79         O  0.87734324  0.46006988  0.93901207    -0.57500
C80         C  0.89142838  0.46457660  0.88038571     0.75200
O81         O  0.83183265  0.45555603  0.89409874    -0.58600
C82         C  0.86375385  0.46619072  0.94906309     0.75100
C83         C  0.85758692  0.50951560  0.90649235     0.77500
Cd84       Cd  0.86174970  0.46883625  0.90827168     1.37500
O85         O  0.89502884  0.46170115  0.89773428    -0.57500
O86         O  0.87256347  0.50112559  0.91155870    -0.56300
C87         C  0.83478515  0.43887635  0.90019978     0.77500
O88         O  0.84367529  0.49907345  0.90169678    -0.58600
O89         O  0.87439026  0.46823230  0.87621442    -0.57100
O90         O  0.84964861  0.47293830  0.94029697    -0.57100
O91         O  0.85014658  0.43628317  0.90908519    -0.56300
O92         O  0.87807656  0.46023445  0.97953919    -0.57500
C93         C  0.89206635  0.46399767  0.03930373     0.75200
O94         O  0.84610799  0.49891357  0.01824318    -0.58600
C95         C  0.86402894  0.46604259  0.96989677     0.75100
C96         C  0.83645899  0.43781352  0.01839472     0.77500
Cd97       Cd  0.86299705  0.46825096  0.01074110     1.37500
O98         O  0.89592823  0.46067561  0.02207709    -0.57500
O99         O  0.85264115  0.43527497  0.01108766    -0.56300
C100        C  0.86004287  0.50898819  0.01274742     0.77500
O101        O  0.83245449  0.45472310  0.02315156    -0.58600
O102        O  0.87504245  0.46815137  0.04304935    -0.57100
O103        O  0.84995479  0.47224087  0.97908183    -0.57100
O104        O  0.87445945  0.50021348  0.00678957    -0.56300
O105        O  0.07325771  0.57638602  0.89812779    -0.57500
C106        C  0.10625514  0.57303925  0.94964766     0.75200
O107        O  0.12313389  0.53845879  0.90072429    -0.58600
C108        C  0.07678140  0.57261245  0.88090364     0.75100
C109        C  0.13020701  0.59994256  0.89628119     0.77500
Cd110      Cd  0.10632895  0.56908196  0.90892101     1.37500
O111        O  0.09118925  0.57595396  0.94025637    -0.57500
O112        O  0.11302833  0.60204241  0.90102649    -0.56300
C113        C  0.10949739  0.52831594  0.90680156     0.77500
O114        O  0.13690344  0.58328436  0.89775657    -0.58600
O115        O  0.12107414  0.56952508  0.94022149    -0.57100
O116        O  0.09356169  0.56764960  0.87700426    -0.57100
O117        O  0.09539167  0.53703020  0.91350982    -0.56300
O118        O  0.09209564  0.57548417  0.98054020    -0.57500
C119        C  0.07994763  0.57108869  0.03990132     0.75200
O120        O  0.12498607  0.53644966  0.01658878    -0.58600
C121        C  0.10670621  0.57264359  0.97046526     0.75100
C122        C  0.13152716  0.59913535  0.02362690     0.77500
Cd123      Cd  0.10836674  0.56779368  0.01099874     1.37500
O124        O  0.07614651  0.57569266  0.02294183    -0.57500
O125        O  0.11509640  0.60096254  0.01667470    -0.56300
C126        C  0.11036201  0.52692418  0.01188641     0.77500
O127        O  0.13824897  0.58239536  0.02402819    -0.58600
O128        O  0.09660143  0.56533038  0.04323581    -0.57100
O129        O  0.12185323  0.56851495  0.97915719    -0.57100
O130        O  0.09591083  0.53627209  0.00696798    -0.56300
O131        O  0.08830582  0.45992107  0.93800242    -0.57500
C132        C  0.07731777  0.46276207  0.87791864     0.75200
O133        O  0.12298186  0.49727674  0.90071219    -0.58600
C134        C  0.10269639  0.46378639  0.94813864     0.75100
C135        C  0.13032437  0.43499531  0.90128403     0.77500
Cd136      Cd  0.10527981  0.46667941  0.90751128     1.37500
O137        O  0.07295281  0.45926642  0.89499263    -0.57500
O138        O  0.11378509  0.43340471  0.90804852    -0.56300
C139        C  0.10925173  0.50743608  0.90641596     0.77500
O140        O  0.13556344  0.45160051  0.89646734    -0.58600
O141        O  0.09447098  0.46695003  0.87465813    -0.57100
O142        O  0.11769718  0.46854737  0.93949987    -0.57100
O143        O  0.09463230  0.49874130  0.91212298    -0.56300
O144        O  0.08771696  0.45956081  0.97860568    -0.57500
C145        C  0.07620170  0.46287233  0.03944117     0.75200
O146        O  0.13421054  0.44940055  0.01923851    -0.58600
C147        C  0.10244896  0.46334270  0.96894900     0.75100
C148        C  0.10938438  0.50605095  0.01180724     0.77500
Cd149      Cd  0.10410400  0.46552293  0.00968691     1.37500
O150        O  0.07150916  0.45943256  0.02241018    -0.57500
O151        O  0.09412785  0.49800480  0.00681431    -0.56300
C152        C  0.12689477  0.43288404  0.01882847     0.77500
O153        O  0.12307103  0.49528912  0.01643698    -0.58600
O154        O  0.09346624  0.46683586  0.04246702    -0.57100
O155        O  0.11736702  0.46725738  0.97810176    -0.57100
O156        O  0.10960455  0.43177800  0.01411482    -0.56300
O157        O  0.96773821  0.57773104  0.06866602    -0.57500
C158        C  0.90842006  0.57402439  0.05390068     0.75200
O159        O  0.92895631  0.54063403  0.10168453    -0.58600
C160        C  0.97723430  0.57388961  0.08344086     0.75100
C161        C  0.92752721  0.60257458  0.10807389     0.77500
Cd162      Cd  0.93638509  0.57084942  0.08379354     1.37500
O163        O  0.92577199  0.57750644  0.05051817    -0.57500
O164        O  0.93499396  0.60430108  0.09188015    -0.56300
C165        C  0.93382335  0.53025523  0.08781334     0.77500
O166        O  0.92364819  0.58576537  0.11340954    -0.58600
O167        O  0.90419570  0.57011736  0.07086734    -0.57100
O168        O  0.96790516  0.56911087  0.09797463    -0.57100
O169        O  0.93971402  0.53868151  0.07316002    -0.56300
O170        O  0.04878715  0.57679684  0.05231624    -0.57500
C171        C  0.99807565  0.57417851  0.08390222     0.75200
O172        O  0.04530746  0.54029577  0.10359997    -0.58600
C173        C  0.06585344  0.57187810  0.05515323     0.75100
C174        C  0.05027700  0.60342916  0.10798220     0.77500
Cd175      Cd  0.03877150  0.57084015  0.08550623     1.37500
O176        O  0.00807743  0.57804857  0.06948950    -0.57500
O177        O  0.04520345  0.60455471  0.09084615    -0.56300
C178        C  0.03962103  0.53009328  0.08985008     0.77500
O179        O  0.05038873  0.58688617  0.11519111    -0.58600
O180        O  0.00689801  0.56987882  0.09888997    -0.57100
O181        O  0.07030384  0.56722046  0.07188608    -0.57100
O182        O  0.03406701  0.53876416  0.07523554    -0.56300
O183        O  0.92382459  0.46044341  0.05152139    -0.57500
C184        C  0.97446301  0.46659183  0.08412654     0.75200
O185        O  0.92782702  0.49950893  0.10203468    -0.58600
C186        C  0.90645700  0.46411352  0.05440785     0.75100
C187        C  0.92466142  0.43837246  0.11085087     0.77500
Cd188      Cd  0.93372558  0.46869642  0.08469426     1.37500
O189        O  0.96488809  0.46112202  0.06989338    -0.57500
O190        O  0.93488314  0.43613817  0.09631534    -0.56300
C191        C  0.93300607  0.50941236  0.08790641     0.77500
O192        O  0.91803526  0.45491022  0.11348752    -0.58600
O193        O  0.96522326  0.47238531  0.09833075    -0.57100
O194        O  0.90193387  0.46879815  0.07107573    -0.57100
O195        O  0.93778281  0.50048250  0.07317743    -0.56300
O196        O  0.00518434  0.46144914  0.07035039    -0.57500
C197        C  0.06243417  0.46323368  0.05508243     0.75200
O198        O  0.04354630  0.49888467  0.10398328    -0.58600
C199        C  0.99529824  0.46665238  0.08440333     0.75100
C200        C  0.04390452  0.43725046  0.11186118     0.77500
Cd201      Cd  0.03612925  0.46839129  0.08604323     1.37500
O202        O  0.04486752  0.46016733  0.05270680    -0.57500
O203        O  0.03374998  0.43571443  0.09717560    -0.56300
C204        C  0.03910077  0.50919053  0.08991361     0.77500
O205        O  0.05111859  0.45351858  0.11483707    -0.58600
O206        O  0.06768767  0.46747414  0.07167594    -0.57100
O207        O  0.00423668  0.47228626  0.09890420    -0.57100
O208        O  0.03378747  0.50061759  0.07513721    -0.56300
O209        O  0.54321791  0.00049330  0.84833514    -0.57500
C210        C  0.53834729  0.94209812  0.86315351     0.75200
O211        O  0.50482266  0.96100881  0.81574059    -0.58600
C212        C  0.53912808  0.01025246  0.83380445     0.75100
C213        C  0.56738508  0.95822172  0.80938496     0.77500
Cd214      Cd  0.53549336  0.96942129  0.83285432     1.37500
O215        O  0.54255689  0.95940353  0.86602095    -0.57500
O216        O  0.56898039  0.96301589  0.82656560    -0.56300
C217        C  0.49459480  0.96832025  0.82861921     0.77500
O218        O  0.55069176  0.95839967  0.80259896    -0.58600
O219        O  0.53308467  0.93768717  0.84659357    -0.57100
O220        O  0.53460705  0.00112850  0.81904473    -0.57100
O221        O  0.50325776  0.97563009  0.84248671    -0.56300
O222        O  0.54091907  0.08354884  0.86563731    -0.57500
C223        C  0.53861742  0.03114542  0.83387646     0.75200
O224        O  0.50398831  0.07962079  0.81518123    -0.58600
C225        C  0.53738444  0.10078816  0.86177173     0.75100
C226        C  0.56479593  0.07996740  0.80685746     0.77500
Cd227      Cd  0.53425871  0.07194700  0.83262373     1.37500
O228        O  0.54247077  0.04106622  0.84839630    -0.57500
O229        O  0.56716811  0.07384538  0.82353001    -0.56300
C230        C  0.49364248  0.07285048  0.82826671     0.77500
O231        O  0.54785070  0.08341247  0.80186535    -0.58600
O232        O  0.53341375  0.04006747  0.81924200    -0.57100
O233        O  0.53350583  0.10451248  0.84469717    -0.57100
O234        O  0.50210528  0.06581953  0.84238088    -0.56300
O235        O  0.42537703  0.95804861  0.86496924    -0.57500
C236        C  0.43028636  0.01034128  0.83334627     0.75200
O237        O  0.46354355  0.96162566  0.81515382    -0.58600
C238        C  0.42952218  0.94088255  0.86140953     0.75100
C239        C  0.40084309  0.96271343  0.80697768     0.77500
Cd240      Cd  0.43280061  0.96953581  0.83211037     1.37500
O241        O  0.42549774  0.00059811  0.84772856    -0.57500
O242        O  0.39955089  0.97122583  0.82268026    -0.56300
C243        C  0.47367730  0.96849310  0.82840365     0.77500
O244        O  0.41718578  0.95651715  0.80263679    -0.58600
O245        O  0.43579041  0.00123528  0.81892118    -0.57100
O246        O  0.43409630  0.93711653  0.84452708    -0.57100
O247        O  0.46491800  0.97568905  0.84223767    -0.56300
O248        O  0.42449874  0.04120160  0.84696757    -0.57500
C249        C  0.42767390  0.10057427  0.86001813     0.75200
O250        O  0.46295066  0.07917686  0.81417042    -0.58600
C251        C  0.43004094  0.03122879  0.83305067     0.75100
C252        C  0.40099375  0.07916386  0.80491279     0.77500
Cd253      Cd  0.43201870  0.07199462  0.83094353     1.37500
O254        O  0.42394264  0.08329092  0.86355921    -0.57500
O255        O  0.39936159  0.06918665  0.81971512    -0.56300
C256        C  0.47279921  0.07300648  0.82792545     0.77500
O257        O  0.41734822  0.08604281  0.80163631    -0.58600
O258        O  0.43233743  0.10450111  0.84319045    -0.57100
O259        O  0.43582025  0.04010628  0.81855908    -0.57100
O260        O  0.46380937  0.06678658  0.84208994    -0.56300
O261        O  0.54243376  0.93160001  0.89533089    -0.57500
C262        C  0.54061230  0.90022261  0.94731741     0.75200
O263        O  0.50637988  0.88070577  0.89826351    -0.58600
C264        C  0.53897406  0.92763517  0.87815558     0.75100
C265        C  0.56783604  0.87294378  0.89944907     0.77500
Cd266      Cd  0.53654625  0.89840672  0.90673517     1.37500
O267        O  0.54534525  0.91447794  0.93733878    -0.57500
O268        O  0.56990921  0.88973347  0.90551493    -0.56300
C269        C  0.49578776  0.89366360  0.90489178     0.77500
O270        O  0.55099815  0.86778299  0.89559473    -0.58600
O271        O  0.53450397  0.88578103  0.93854410    -0.57100
O272        O  0.53551565  0.91041143  0.87437771    -0.57100
O273        O  0.50405031  0.90773819  0.91239596    -0.56300
O274        O  0.54485710  0.93119660  0.02004275    -0.57500
C275        C  0.54125354  0.90009035  0.96811266     0.75200
O276        O  0.55224863  0.86689424  0.01851350    -0.58600
C277        C  0.54038607  0.92772579  0.03710530     0.75100
C278        C  0.49718969  0.89421487  0.00981327     0.77500
Cd279      Cd  0.53801773  0.89819579  0.00879427     1.37500
O280        O  0.54635751  0.91426845  0.97800080    -0.57500
O281        O  0.50582359  0.90926345  0.00516965    -0.56300
C282        C  0.56903771  0.87340539  0.01947458     0.77500
O283        O  0.50741464  0.88021166  0.01471773    -0.58600
O284        O  0.53591259  0.88547114  0.97702940    -0.57100
O285        O  0.53571176  0.91077080  0.04097181    -0.57100
O286        O  0.57110320  0.89085548  0.01566924    -0.56300
O287        O  0.42573032  0.91114115  0.93482873    -0.57500
C288        C  0.42988637  0.92593113  0.87600745     0.75200
O289        O  0.46524830  0.87986018  0.89663609    -0.58600
C290        C  0.43103751  0.89691873  0.94453846     0.75100
C291        C  0.40241341  0.87066847  0.89548893     0.77500
Cd292      Cd  0.43389532  0.89601157  0.90392188     1.37500
O293        O  0.42600953  0.92906425  0.89325222    -0.57500
O294        O  0.40073508  0.88619913  0.90431643    -0.56300
C295        C  0.47489365  0.89322279  0.90406982     0.77500
O296        O  0.41909052  0.86627519  0.89027636    -0.58600
O297        O  0.43484257  0.90919040  0.87183524    -0.57100
O298        O  0.43674481  0.88252262  0.93545922    -0.57100
O299        O  0.46564556  0.90693769  0.91091063    -0.56300
O300        O  0.42826687  0.92905803  0.01676951    -0.57500
C301        C  0.43143761  0.89695093  0.96535343     0.75200
O302        O  0.46637768  0.87920207  0.01319754    -0.58600
C303        C  0.43065777  0.92547395  0.03421717     0.75100
C304        C  0.40494011  0.87090997  0.01744104     0.77500
Cd305      Cd  0.43542940  0.89595167  0.00612672     1.37500
O306        O  0.42613518  0.91100516  0.97523904    -0.57500
O307        O  0.40246862  0.88768509  0.01153307    -0.56300
C308        C  0.47631366  0.89371896  0.00909103     0.77500
O309        O  0.42189610  0.86487564  0.01759941    -0.58600
O310        O  0.43783813  0.88277788  0.97426960    -0.57100
O311        O  0.43462226  0.90847090  0.03847586    -0.57100
O312        O  0.46738808  0.90837684  0.00394370    -0.56300
O313        O  0.53971127  0.13063044  0.93464463    -0.57500
C314        C  0.53691519  0.11589232  0.87620645     0.75200
O315        O  0.50260073  0.16331352  0.89495515    -0.58600
C316        C  0.53562109  0.14511711  0.94447686     0.75100
C317        C  0.56408547  0.17057780  0.89268582     0.77500
Cd318      Cd  0.53299215  0.14623734  0.90359294     1.37500
O319        O  0.54065285  0.11294852  0.89353339    -0.57500
O320        O  0.56603584  0.15345884  0.89776828    -0.56300
C321        C  0.49245488  0.14963981  0.90097779     0.77500
O322        O  0.54730759  0.17708576  0.89270255    -0.58600
O323        O  0.53202611  0.13259833  0.87176779    -0.57100
O324        O  0.53137593  0.16004733  0.93546991    -0.57100
O325        O  0.50110272  0.13542440  0.90756808    -0.56300
O326        O  0.53817191  0.11187542  0.01740424    -0.57500
C327        C  0.53500983  0.14470770  0.96530066     0.75200
O328        O  0.50031112  0.16190219  0.01283633    -0.58600
C329        C  0.53484715  0.11575508  0.03464523     0.75100
C330        C  0.56317285  0.16703142  0.01702331     0.77500
Cd331      Cd  0.53095073  0.14464583  0.00600609     1.37500
O332        O  0.53819992  0.12973782  0.97479519    -0.57500
O333        O  0.56432088  0.15024380  0.01075628    -0.56300
C334        C  0.49024607  0.14769918  0.00795201     0.77500
O335        O  0.54665583  0.17416997  0.01810409    -0.58600
O336        O  0.53055282  0.15940017  0.97459162    -0.57100
O337        O  0.53015623  0.13269482  0.03837359    -0.57100
O338        O  0.49901618  0.13300263  0.00263259    -0.56300
O339        O  0.42396363  0.11203117  0.89188827    -0.57500
C340        C  0.42865516  0.14337185  0.94354472     0.75200
O341        O  0.46137668  0.16317220  0.89528501    -0.58600
C342        C  0.42755833  0.11545832  0.87463353     0.75100
C343        C  0.39897758  0.16924158  0.89523987     0.77500
Cd344      Cd  0.43115893  0.14510030  0.90272718     1.37500
O345        O  0.42381184  0.12919095  0.93352328    -0.57500
O346        O  0.39797007  0.15341744  0.90365500    -0.56300
C347        C  0.47163736  0.14942480  0.90082763     0.77500
O348        O  0.41535778  0.17441124  0.88972697    -0.58600
O349        O  0.43450263  0.15793585  0.93475412    -0.57100
O350        O  0.43187980  0.13241725  0.87050104    -0.57100
O351        O  0.46311697  0.13476738  0.90672929    -0.56300
O352        O  0.42180745  0.11080638  0.01623108    -0.57500
C353        C  0.42786879  0.14321934  0.96438276     0.75200
O354        O  0.41252019  0.17351552  0.01800249    -0.58600
C355        C  0.42652242  0.11411714  0.03327432     0.75100
C356        C  0.46937898  0.14755872  0.00793380     0.77500
Cd357      Cd  0.42878811  0.14398836  0.00536167     1.37500
O358        O  0.42220408  0.12895049  0.97384265    -0.57500
O359        O  0.46075136  0.13261291  0.00292914    -0.56300
C360        C  0.39592611  0.16658084  0.01633475     0.77500
O361        O  0.45918567  0.16174799  0.01243162    -0.58600
O362        O  0.43311969  0.15761150  0.97377122    -0.57100
O363        O  0.43159603  0.13093624  0.03716338    -0.57100
O364        O  0.39495354  0.15005124  0.00933978    -0.56300
O365        O  0.54328531  0.95991835  0.04840504    -0.57500
C366        C  0.53587417  0.01192484  0.07903094     0.75200
O367        O  0.50342456  0.96341446  0.09748512    -0.58600
C368        C  0.53968455  0.94257001  0.05177619     0.75100
C369        C  0.56496315  0.96310490  0.10719558     0.77500
Cd370      Cd  0.53433664  0.97098301  0.08094074     1.37500
O371        O  0.54158832  0.00205828  0.06512480    -0.57500
O372        O  0.56701894  0.97200889  0.09177000    -0.56300
C373        C  0.49353728  0.96894039  0.08349655     0.77500
O374        O  0.54821033  0.95768472  0.11108724    -0.58600
O375        O  0.53028990  0.00291294  0.09350258    -0.57100
O376        O  0.53459982  0.93853191  0.06845986    -0.57100
O377        O  0.50249952  0.97498303  0.06922579    -0.56300
O378        O  0.54087192  0.04266845  0.06474084    -0.57500
C379        C  0.53548036  0.10138000  0.04975598     0.75200
O380        O  0.50072921  0.08002488  0.09642389    -0.58600
C381        C  0.53514698  0.03281006  0.07868885     0.75100
C382        C  0.56265331  0.08137774  0.10612387     0.77500
Cd383      Cd  0.53190148  0.07361011  0.07971251     1.37500
O384        O  0.53936226  0.08407229  0.04666344    -0.57500
O385        O  0.56465087  0.07200108  0.09099604    -0.56300
C386        C  0.49090839  0.07444832  0.08237688     0.77500
O387        O  0.54624164  0.08811583  0.10917383    -0.58600
O388        O  0.53136521  0.10578274  0.06661054    -0.57100
O389        O  0.52828071  0.04179205  0.09259231    -0.57100
O390        O  0.49999764  0.06879605  0.06805139    -0.56300
O391        O  0.42402891  0.99957406  0.06266884    -0.57500
C392        C  0.42974323  0.94024479  0.04896450     0.75200
O393        O  0.46235676  0.96262071  0.09655487    -0.58600
C394        C  0.42815669  0.00958441  0.07706038     0.75100
C395        C  0.40022283  0.96008189  0.10298241     0.77500
Cd396      Cd  0.43199654  0.96880396  0.07845262     1.37500
O397        O  0.42629651  0.95753996  0.04529511    -0.57500
O398        O  0.39862907  0.96912878  0.08759103    -0.56300
C399        C  0.47267895  0.96858275  0.08304614     0.77500
O400        O  0.41683115  0.95468572  0.10738813    -0.58600
O401        O  0.43310394  0.93622149  0.06608600    -0.57100
O402        O  0.43354442  0.00075164  0.09170765    -0.57100
O403        O  0.46417437  0.97441320  0.06843183    -0.56300
O404        O  0.42233061  0.08214324  0.04481558    -0.57500
C405        C  0.42741147  0.03048291  0.07700220     0.75200
O406        O  0.45952570  0.07912615  0.09576825    -0.58600
C407        C  0.42667853  0.09936820  0.04804187     0.75100
C408        C  0.39579978  0.08205343  0.09973025     0.77500
Cd409      Cd  0.42921480  0.07151632  0.07787482     1.37500
O410        O  0.42288007  0.04007410  0.06248533    -0.57500
O411        O  0.39532492  0.07585014  0.08294584    -0.56300
C412        C  0.46999229  0.07414915  0.08197895     0.77500
O413        O  0.41215042  0.08315792  0.10728438    -0.58600
O414        O  0.43186897  0.03979596  0.09166658    -0.57100
O415        O  0.43166914  0.10345898  0.06477284    -0.57100
O416        O  0.46158970  0.06853267  0.06718801    -0.56300
O417        O  0.96295378  0.90924953  0.51826901    -0.57500
C418        C  0.90515927  0.92410565  0.51243980     0.75200
O419        O  0.92712324  0.87526549  0.47886859    -0.58600
C420        C  0.97316473  0.89566905  0.51238082     0.75100
C421        C  0.92141676  0.86816016  0.53938713     0.77500
Cd422      Cd  0.93225611  0.89367392  0.50917168     1.37500
O423        O  0.92256652  0.92721603  0.51581639    -0.57500
O424        O  0.93225578  0.88232100  0.54170405    -0.56300
C425        C  0.93025979  0.88984064  0.46872455     0.77500
O426        O  0.91536286  0.86528901  0.52272180    -0.58600
O427        O  0.90050570  0.90714629  0.50875065    -0.57100
O428        O  0.96450904  0.88139782  0.50565243    -0.57100
O429        O  0.93398081  0.90512566  0.47731245    -0.56300
O430        O  0.00348270  0.91042090  0.51875630    -0.57500
C431        C  0.06321514  0.92662774  0.51298829     0.75200
O432        O  0.04736257  0.86559669  0.52131237    -0.58600
C433        C  0.99405848  0.89631254  0.51258290     0.75100
C434        C  0.03672721  0.89488921  0.46884858     0.77500
Cd435      Cd  0.03502276  0.89674617  0.50937355     1.37500
O436        O  0.04604505  0.92991717  0.51731477    -0.57500
O437        O  0.03072865  0.90910236  0.47795416    -0.56300
C438        C  0.04727704  0.87089154  0.53847257     0.77500
O439        O  0.04241198  0.88077120  0.47848644    -0.58600
O440        O  0.06709022  0.90983332  0.50797461    -0.57100
O441        O  0.00352290  0.88264189  0.50591646    -0.57100
O442        O  0.04100503  0.88737733  0.54182342    -0.56300
O443        O  0.92046495  0.92565310  0.39920732    -0.57500
C444        C  0.97290294  0.89735326  0.40544939     0.75200
O445        O  0.92686614  0.87520185  0.43793787    -0.58600
C446        C  0.90321461  0.92190552  0.40270866     0.75100
C447        C  0.92558474  0.86604039  0.37763895     0.77500
Cd448      Cd  0.93215614  0.89328782  0.40753569     1.37500
O449        O  0.96229397  0.91080232  0.39996216    -0.57500
O450        O  0.93324564  0.88213078  0.37512325    -0.56300
C451        C  0.93010887  0.88981629  0.44797706     0.77500
O452        O  0.92025377  0.86234836  0.39438410    -0.58600
O453        O  0.96470263  0.88250231  0.41138757    -0.57100
O454        O  0.89935325  0.90490939  0.40715093    -0.57100
O455        O  0.93366957  0.90508460  0.43928016    -0.56300
O456        O  0.00281422  0.91345499  0.40076761    -0.57500
C457        C  0.06256353  0.92863635  0.40246818     0.75200
O458        O  0.04240671  0.88176639  0.43779807    -0.58600
C459        C  0.99373409  0.89854596  0.40541921     0.75100
C460        C  0.04281023  0.87365253  0.37687398     0.77500
Cd461      Cd  0.03456509  0.89904954  0.40765479     1.37500
O462        O  0.04512559  0.93216371  0.39974533    -0.57500
O463        O  0.03416612  0.88926136  0.37488757    -0.56300
C464        C  0.03665589  0.89536440  0.44809702     0.77500
O465        O  0.04817163  0.86949310  0.39352317    -0.58600
O466        O  0.06675097  0.91171102  0.40672980    -0.57100
O467        O  0.00348172  0.88438170  0.41052170    -0.57100
O468        O  0.03047417  0.90992135  0.43967076    -0.56300
O469        O  0.87679828  0.99899178  0.51580266    -0.57500
C470        C  0.89083776  0.93921844  0.51199892     0.75200
O471        O  0.83101424  0.95679673  0.52303306    -0.58600
C472        C  0.86169912  0.00829278  0.51277455     0.75100
C473        C  0.85763313  0.96518864  0.46814842     0.77500
Cd474      Cd  0.86162031  0.96749380  0.50870186     1.37500
O475        O  0.89454603  0.95644123  0.51597297    -0.57500
O476        O  0.87204440  0.97194242  0.47644076    -0.56300
C477        C  0.83779107  0.95546100  0.53962792     0.77500
O478        O  0.84422372  0.95926774  0.47861535    -0.58600
O479        O  0.87401344  0.93543716  0.50697847    -0.57100
O480        O  0.84700549  0.99874441  0.50882560    -0.57100
O481        O  0.85507479  0.95993505  0.54167367    -0.56300
O482        O  0.87522207  0.03950958  0.51679925    -0.57500
C483        C  0.88717978  0.09857651  0.51576937     0.75200
O484        O  0.84038544  0.07561833  0.47916569    -0.58600
C485        C  0.86096029  0.02915956  0.51292508     0.75100
C486        C  0.83208748  0.07770648  0.54025597     0.77500
Cd487      Cd  0.85826821  0.06986877  0.50988665     1.37500
O488        O  0.89106366  0.08112006  0.51782438    -0.57500
O489        O  0.84702178  0.06798905  0.54231513    -0.56300
C490        C  0.85449542  0.07080106  0.46911132     0.77500
O491        O  0.82878519  0.08387706  0.52369558    -0.58600
O492        O  0.87011523  0.10256084  0.51199600    -0.57100
O493        O  0.84580385  0.03764115  0.50844924    -0.57100
O494        O  0.86941657  0.06627594  0.47787805    -0.56300
O495        O  0.87482352  0.99642187  0.39978862    -0.57500
C496        C  0.88840168  0.93658932  0.40272740     0.75200
O497        O  0.84343022  0.95776997  0.43779055    -0.58600
C498        C  0.86042951  0.00597213  0.40485064     0.75100
C499        C  0.83440539  0.95885923  0.37484972     0.77500
Cd500      Cd  0.85941258  0.96516267  0.40672337     1.37500
O501        O  0.89185702  0.95382693  0.39867062    -0.57500
O502        O  0.85137907  0.96458545  0.37351795    -0.56300
C503        C  0.85717404  0.96455103  0.44735845     0.77500
O504        O  0.82868281  0.95462026  0.39139426    -0.58600
O505        O  0.87159958  0.93261895  0.40772175    -0.57100
O506        O  0.84595034  0.99667039  0.41004465    -0.57100
O507        O  0.87113093  0.97102115  0.43814623    -0.56300
O508        O  0.89115092  0.07954043  0.40204049    -0.57500
C509        C  0.86021289  0.02684457  0.40523182     0.75200
O510        O  0.84022399  0.07446768  0.43803965    -0.58600
C511        C  0.88682343  0.09673596  0.40524608     0.75100
C512        C  0.83421879  0.07538641  0.37536226     0.77500
Cd513      Cd  0.85820651  0.06761522  0.40774045     1.37500
O514        O  0.87432962  0.03694617  0.40030886    -0.57500
O515        O  0.85035294  0.06765861  0.37410961    -0.56300
C516        C  0.85438621  0.07009049  0.44829709     0.77500
O517        O  0.82877444  0.07984183  0.39191746    -0.58600
O518        O  0.84563000  0.03557704  0.41094591    -0.57100
O519        O  0.86951802  0.10023745  0.40835566    -0.57100
O520        O  0.86917754  0.06473444  0.43977569    -0.56300
O521        O  0.09170860  0.00019987  0.51613342    -0.57500
C522        C  0.07808388  0.94142058  0.51270114     0.75200
O523        O  0.12560676  0.96519118  0.47667468    -0.58600
C524        C  0.10538549  0.01050716  0.51045919     0.75100
C525        C  0.13528934  0.96013008  0.53690144     0.77500
Cd526      Cd  0.10786220  0.96958103  0.50755692     1.37500
O527        O  0.07496684  0.95871397  0.51664458    -0.57500
O528        O  0.12119973  0.97088644  0.53955958    -0.56300
C529        C  0.11102625  0.96866619  0.46671888     0.77500
O530        O  0.13721252  0.95358814  0.52028488    -0.58600
O531        O  0.09475570  0.93735445  0.50755096    -0.57100
O532        O  0.11974686  0.00193419  0.50404387    -0.57100
O533        O  0.09584750  0.97195568  0.47559496    -0.56300
O534        O  0.07274490  0.08185150  0.51778983    -0.57500
C535        C  0.10498940  0.03141316  0.51083384     0.75200
O536        O  0.12244597  0.08106463  0.47877293    -0.58600
C537        C  0.07578834  0.09940240  0.51501393     0.75100
C538        C  0.13147329  0.08021800  0.54051444     0.77500
Cd539      Cd  0.10581873  0.07238106  0.50948823     1.37500
O540        O  0.09073411  0.04084981  0.51643168    -0.57500
O541        O  0.11632556  0.07069428  0.54220092    -0.56300
C542        C  0.10851158  0.07550891  0.46875308     0.77500
O543        O  0.13514478  0.08667741  0.52413630    -0.58600
O544        O  0.11919192  0.04086778  0.50514606    -0.57100
O545        O  0.09259514  0.10421579  0.51096146    -0.57100
O546        O  0.09426655  0.06913314  0.47756222    -0.56300
O547        O  0.09081350  0.00220489  0.39803958    -0.57500
C548        C  0.07742859  0.94333466  0.40177865     0.75200
O549        O  0.13680102  0.95709326  0.39139915    -0.58600
C550        C  0.10512355  0.01246200  0.40194366     0.75100
C551        C  0.11097828  0.96925148  0.44589748     0.77500
Cd552      Cd  0.10721158  0.97141825  0.40517793     1.37500
O553        O  0.07399805  0.96065845  0.39823849    -0.57500
O554        O  0.09593148  0.97373311  0.43732343    -0.56300
C555        C  0.13256024  0.96140277  0.37447551     0.77500
O556        O  0.12531412  0.96558727  0.43566350    -0.58600
O557        O  0.09443864  0.93916836  0.40561187    -0.57100
O558        O  0.12015223  0.00379766  0.40649507    -0.57100
O559        O  0.11694520  0.96990857  0.37210010    -0.56300
O560        O  0.08934303  0.04270979  0.39930573    -0.57500
C561        C  0.07322938  0.10097352  0.40549042     0.75200
O562        O  0.12142996  0.08244952  0.43763725    -0.58600
C563        C  0.10445485  0.03339984  0.40218922     0.75100
C564        C  0.12636638  0.08869999  0.37571838     0.77500
Cd565      Cd  0.10402194  0.07433489  0.40714367     1.37500
O566        O  0.07041327  0.08377200  0.40078966    -0.57500
O567        O  0.10898741  0.08435946  0.37442046    -0.56300
C568        C  0.10817111  0.07582597  0.44790676     0.77500
O569        O  0.13400080  0.08624868  0.39182329    -0.58600
O570        O  0.08991648  0.10549179  0.41038266    -0.57100
O571        O  0.11911008  0.04300002  0.40620221    -0.57100
O572        O  0.09396414  0.06902478  0.43934325    -0.56300
O573        O  0.91915780  0.11017615  0.51910141    -0.57500
C574        C  0.97036997  0.14127246  0.51388257     0.75200
O575        O  0.92287634  0.16116951  0.48139037    -0.58600
C576        C  0.90171234  0.11361117  0.51641945     0.75100
C577        C  0.92224970  0.16939654  0.54283087     0.77500
Cd578      Cd  0.92963785  0.14339142  0.51193463     1.37500
O579        O  0.96034421  0.12717880  0.51902805    -0.57500
O580        O  0.93175874  0.15429582  0.54467368    -0.56300
C581        C  0.92703792  0.14691576  0.47119313     0.77500
O582        O  0.91573232  0.17279499  0.52642406    -0.58600
O583        O  0.96158896  0.15594994  0.50845070    -0.57100
O584        O  0.89732509  0.13071608  0.51318372    -0.57100
O585        O  0.93210360  0.13206243  0.47981841    -0.56300
O586        O  0.00079953  0.12626577  0.51778305    -0.57500
C587        C  0.06063649  0.11364843  0.51523334     0.75200
O588        O  0.03750946  0.16069633  0.48091723    -0.58600
C589        C  0.99119326  0.14094445  0.51367209     0.75100
C590        C  0.03889538  0.16624776  0.54327442     0.77500
Cd591      Cd  0.03182953  0.14217170  0.51113899     1.37500
O592        O  0.04337423  0.10944914  0.51825133    -0.57500
O593        O  0.03057492  0.15033644  0.54435616    -0.56300
C594        C  0.03317146  0.14659421  0.47052262     0.77500
O595        O  0.04481032  0.17121048  0.52701279    -0.58600
O596        O  0.06432973  0.13081510  0.51134717    -0.57100
O597        O  0.00037674  0.15563834  0.50885095    -0.57100
O598        O  0.02888980  0.13131600  0.47892562    -0.56300
O599        O  0.95869187  0.12848946  0.40235792    -0.57500
C600        C  0.90095518  0.11209127  0.40609865     0.75200
O601        O  0.92180455  0.16104411  0.44028540    -0.58600
C602        C  0.96819559  0.14357127  0.40505867     0.75100
C603        C  0.91230780  0.16523879  0.37831486     0.77500
Cd604      Cd  0.92733275  0.14319238  0.40953989     1.37500
O605        O  0.91834568  0.10963902  0.40217027    -0.57500
O606        O  0.91993639  0.14910943  0.37644646    -0.56300
C607        C  0.92640026  0.14682003  0.45035526     0.77500
O608        O  0.91205714  0.17204401  0.39497253    -0.58600
O609        O  0.89612399  0.12855887  0.41138423    -0.57100
O610        O  0.95881482  0.15845867  0.40856462    -0.57100
O611        O  0.93076152  0.13182756  0.44158876    -0.56300
O612        O  0.04094775  0.11157010  0.40177763    -0.57500
C613        C  0.98909639  0.14380250  0.40516430     0.75200
O614        O  0.03609553  0.16192092  0.43985300    -0.58600
C615        C  0.05812708  0.11529029  0.40584679     0.75100
C616        C  0.04271424  0.16634869  0.37673723     0.77500
Cd617      Cd  0.03000680  0.14452696  0.40898698     1.37500
O618        O  0.99887048  0.12900866  0.40213814    -0.57500
O619        O  0.03575991  0.14978644  0.37570403    -0.56300
C620        C  0.03265432  0.14716698  0.44969290     0.77500
O621        O  0.04356700  0.17366267  0.39317607    -0.58600
O622        O  0.99819389  0.15881372  0.40916364    -0.57100
O623        O  0.06192207  0.13216771  0.41077517    -0.57100
O624        O  0.02830338  0.13225237  0.44072219    -0.56300
O625        O  0.14344391  0.30757199  0.05494452    -0.57500
C626        C  0.16950108  0.30863637  0.00049158     0.75200
O627        O  0.17869124  0.35649478  0.03842903    -0.58600
C628        C  0.14649829  0.31586695  0.07064322     0.75100
C629        C  0.20520478  0.30074959  0.05245959     0.77500
Cd630      Cd  0.17197115  0.32112774  0.03936250     1.37500
O631        O  0.15694902  0.30363292  0.01236775    -0.57500
O632        O  0.18883880  0.29337799  0.05139515    -0.56300
C633        C  0.16145095  0.36054531  0.03502078     0.77500
O634        O  0.20642005  0.31822747  0.04804704    -0.58600
O635        O  0.18294523  0.31878294  0.00675232    -0.57100
O636        O  0.16187803  0.32511020  0.07187566    -0.57100
O637        O  0.15020109  0.34669190  0.03313847    -0.56300
O638        O  0.15505533  0.30750052  0.90788234    -0.57500
C639        C  0.14612291  0.31822968  0.84945606     0.75200
O640        O  0.17942364  0.35758678  0.87808620    -0.58600
C641        C  0.16862569  0.30946872  0.91953867     0.75100
C642        C  0.20546136  0.30128099  0.86914625     0.77500
Cd643      Cd  0.17227692  0.32259501  0.88082593     1.37500
O644        O  0.14482168  0.30791388  0.86413372    -0.57500
O645        O  0.18888936  0.29436755  0.86974696    -0.56300
C646        C  0.16539890  0.36247250  0.88824696     0.77500
O647        O  0.20697935  0.31875769  0.87344977    -0.58600
O648        O  0.15987403  0.32983880  0.84919865    -0.57100
O649        O  0.18379099  0.31648648  0.91290916    -0.57100
O650        O  0.15557891  0.34907022  0.89506526    -0.56300
O651        O  0.26735005  0.20021545  0.00809226    -0.57500
C652        C  0.27261938  0.18373238  0.06504676     0.75200
O653        O  0.31894319  0.21603315  0.04066228    -0.58600
C654        C  0.27369079  0.21356343  0.99778649     0.75100
C655        C  0.26256721  0.24398631  0.05044548     0.77500
Cd656      Cd  0.28341534  0.21125568  0.03721267     1.37500
O657        O  0.26664715  0.18235753  0.04814337    -0.57500
O658        O  0.25485039  0.22814103  0.04685804    -0.56300
C659        C  0.32281737  0.19959594  0.03427989     0.77500
O660        O  0.28054632  0.24468864  0.04909037    -0.58600
O661        O  0.28320316  0.19782702  0.06875317    -0.57100
O662        O  0.28410272  0.22574606  0.00592396    -0.57100
O663        O  0.30883812  0.18963029  0.02901512    -0.56300
O664        O  0.27409299  0.18184076  0.86361538    -0.57500
C665        C  0.27568703  0.21193617  0.91653142     0.75200
O666        O  0.32139974  0.21815521  0.87440080    -0.58600
C667        C  0.28257402  0.18428175  0.84793423     0.75100
C668        C  0.26426491  0.24503243  0.86721876     0.77500
Cd669      Cd  0.28635971  0.21202622  0.87755031     1.37500
O670        O  0.26879207  0.19958213  0.90532056    -0.57500
O671        O  0.25722519  0.22851702  0.86862476    -0.56300
C672        C  0.32584190  0.20415492  0.88489505     0.77500
O673        O  0.28214311  0.24627147  0.86916176    -0.58600
O674        O  0.28665622  0.22422534  0.90931486    -0.57100
O675        O  0.29119366  0.19994501  0.84583184    -0.57100
O676        O  0.31223726  0.19450583  0.89153984    -0.56300
O677        O  0.07200574  0.31000407  0.12632216    -0.57500
C678        C  0.01892618  0.31493747  0.15230511     0.75200
O679        O  0.06333297  0.32030589  0.18987914    -0.58600
C680        C  0.08861210  0.31645703  0.12903848     0.75100
C681        C  0.05401865  0.36492105  0.14794401     0.77500
Cd682      Cd  0.05834997  0.32473503  0.15509433     1.37500
O683        O  0.03027369  0.31005005  0.13924968    -0.57500
O684        O  0.04708111  0.35190342  0.13776535    -0.56300
C685        C  0.06738146  0.30280325  0.18842108     0.77500
O686        O  0.06393147  0.35963504  0.16201509    -0.58600
O687        O  0.02612043  0.32324196  0.16647087    -0.57100
O688        O  0.09103348  0.32610202  0.14399685    -0.57100
O689        O  0.06791020  0.29604976  0.17184389    -0.56300
O690        O  0.88408424  0.31443125  0.12815853    -0.57500
C691        C  0.93775645  0.31632896  0.15438773     0.75200
O692        O  0.89582969  0.36386367  0.16196876    -0.58600
C693        C  0.86842719  0.32304177  0.13019596     0.75100
C694        C  0.88858841  0.30621278  0.18929008     0.77500
Cd695      Cd  0.89907306  0.32852947  0.15652550     1.37500
O696        O  0.92618957  0.31228550  0.14118574    -0.57500
O697        O  0.88927526  0.29967048  0.17263591    -0.56300
C698        C  0.90614000  0.36794341  0.14774788     0.77500
O699        O  0.89203700  0.32387072  0.19111083    -0.58600
O700        O  0.93117928  0.32545436  0.16833891    -0.57100
O701        O  0.86691985  0.33346906  0.14473082    -0.57100
O702        O  0.91297178  0.35412979  0.13864685    -0.56300
O703        O  0.07044957  0.18104254  0.24630722    -0.57500
C704        C  0.01892615  0.20828188  0.25764014     0.75200
O705        O  0.06629154  0.21408956  0.29886133    -0.58600
C706        C  0.08768852  0.18321347  0.25109498     0.75100
C707        C  0.06729745  0.24363427  0.24402659     0.77500
Cd708      Cd  0.05911831  0.20898528  0.26421471     1.37500
O709        O  0.02952039  0.19633777  0.24939415    -0.57500
O710        O  0.06749365  0.22744801  0.23628277    -0.56300
C711        C  0.05989672  0.19784043  0.30352408     0.77500
O712        O  0.06469995  0.24399243  0.26179934    -0.58600
O713        O  0.02717370  0.22020764  0.26821744    -0.57100
O714        O  0.09139710  0.19739562  0.26151843    -0.57100
O715        O  0.05337558  0.18767398  0.29029081    -0.56300
O716        O  0.92574443  0.20013854  0.25149232    -0.57500
C717        C  0.86627391  0.18872607  0.25946506     0.75200
O718        O  0.89417504  0.21925570  0.30285195    -0.58600
C719        C  0.93711989  0.21171500  0.25939253     0.75100
C720        C  0.88899486  0.24760338  0.24602798     0.77500
Cd721      Cd  0.89722293  0.21367982  0.26759343     1.37500
O722        O  0.88259375  0.18553896  0.25256199    -0.57500
O723        O  0.89098237  0.23134241  0.23866477    -0.56300
C724        C  0.89830906  0.20213444  0.30690744     0.77500
O725        O  0.88968378  0.24836541  0.26399886    -0.58600
O726        O  0.86413254  0.20427274  0.26823180    -0.57100
O727        O  0.92986706  0.22334890  0.27091245    -0.57100
O728        O  0.90186103  0.19134860  0.29306175    -0.56300
O729        O  0.27275855  0.96259552  0.13526549    -0.57500
C730        C  0.28578090  0.90573855  0.12518779     0.75200
O731        O  0.32610157  0.93530145  0.15567815    -0.58600
C732        C  0.27663043  0.97470626  0.14801001     0.75100
C733        C  0.27060921  0.92694620  0.18546917     0.77500
Cd734      Cd  0.29069650  0.93678543  0.15104032     1.37500
O735        O  0.27651293  0.92103430  0.12324503    -0.57500
O736        O  0.26326065  0.92601505  0.16914018    -0.56300
C737        C  0.32947160  0.94601950  0.14156895     0.77500
O738        O  0.28813883  0.93114096  0.18600266    -0.58600
O739        O  0.29651740  0.90468376  0.13953405    -0.57100
O740        O  0.28611869  0.96875362  0.16200705    -0.57100
O741        O  0.31521004  0.95212073  0.13265961    -0.56300
O742        O  0.26599972  0.10762999  0.11922966    -0.57500
C743        C  0.27484676  0.05579411  0.14654648     0.75200
O744        O  0.31854729  0.09699436  0.15274082    -0.58600
C745        C  0.27169464  0.12463005  0.12112539     0.75100
C746        C  0.26093425  0.10317164  0.18108476     0.77500
Cd747      Cd  0.28291662  0.09561985  0.14725610     1.37500
O748        O  0.26795718  0.06660065  0.13392153    -0.57500
O749        O  0.25434679  0.09591729  0.16608244    -0.56300
C750        C  0.32242548  0.09303795  0.13559195     0.77500
O751        O  0.27824828  0.10835940  0.18062909    -0.58600
O752        O  0.28557774  0.06348087  0.15872179    -0.57100
O753        O  0.28110406  0.12832797  0.13598084    -0.57100
O754        O  0.30835990  0.09060706  0.12475773    -0.56300
O755        O  0.15239605  0.92211881  0.25158093    -0.57500
C756        C  0.17754820  0.97665072  0.25554788     0.75200
O757        O  0.18646730  0.93609235  0.30126725    -0.58600
C758        C  0.15384008  0.90683504  0.26099841     0.75100
C759        C  0.21351211  0.92762213  0.24361234     0.77500
Cd760      Cd  0.18053435  0.93755027  0.26598480     1.37500
O761        O  0.16468310  0.96493506  0.25069548    -0.57500
O762        O  0.19696490  0.92943191  0.23693095    -0.56300
C763        C  0.17188325  0.94610651  0.30485006     0.77500
O764        O  0.21519585  0.92986055  0.26139746    -0.58600
O765        O  0.19179221  0.96987409  0.26407755    -0.57100
O766        O  0.16803681  0.90558972  0.27194279    -0.57100
O767        O  0.16210924  0.95134506  0.29082939    -0.56300
O768        O  0.15739855  0.06800623  0.25172674    -0.57500
C769        C  0.14446401  0.12560436  0.24816271     0.75200
O770        O  0.17813613  0.10380019  0.29799671    -0.58600
C771        C  0.17025471  0.05791780  0.25922417     0.75100
C772        C  0.20424836  0.10355502  0.24001694     0.77500
Cd773      Cd  0.17080837  0.09843939  0.26325672     1.37500
O774        O  0.14076783  0.10797513  0.24810784    -0.57500
O775        O  0.18906567  0.09562017  0.23459813    -0.56300
C776        C  0.16106295  0.10097063  0.30312789     0.77500
O777        O  0.20402397  0.11091544  0.25647351    -0.58600
O778        O  0.16082228  0.13025104  0.25407353    -0.57100
O779        O  0.18278461  0.06661087  0.26873083    -0.57100
O780        O  0.14924865  0.09785442  0.29005880    -0.56300
O781        O  0.69205026  0.85655917  0.86373880    -0.57500
C782        C  0.68797113  0.82714406  0.91734500     0.75200
O783        O  0.64320606  0.82037989  0.87664256    -0.58600
C784        C  0.68528450  0.85343977  0.84735332     0.75100
C785        C  0.70346286  0.79675154  0.86935433     0.77500
Cd786      Cd  0.67828333  0.82759082  0.87802820     1.37500
O787        O  0.69328627  0.84086914  0.90688109    -0.57500
O788        O  0.70877411  0.81345537  0.87340985    -0.56300
C789        C  0.63892980  0.83618297  0.88432025     0.77500
O790        O  0.68564526  0.79407593  0.86774867    -0.58600
O791        O  0.67826944  0.81419344  0.90948046    -0.57100
O792        O  0.67565092  0.83833462  0.84541155    -0.57100
O793        O  0.65256825  0.84713187  0.88847672    -0.56300
O794        O  0.69573793  0.83749623  0.01006738    -0.57500
C795        C  0.68573102  0.85215595  0.06736714     0.75200
O796        O  0.64349570  0.81866581  0.04001227    -0.58600
C797        C  0.68783709  0.82616846  0.99850862     0.75100
C798        C  0.69979513  0.79125212  0.04875615     0.77500
Cd799      Cd  0.67871918  0.82473513  0.03799359     1.37500
O800        O  0.69367668  0.85359601  0.05131305    -0.57500
O801        O  0.70733814  0.80741058  0.04633672    -0.56300
C802        C  0.63953958  0.83559149  0.03508771     0.77500
O803        O  0.68185209  0.79049804  0.04723243    -0.58600
O804        O  0.67598659  0.83723779  0.07013637    -0.57100
O805        O  0.67645978  0.81409256  0.00542303    -0.57100
O806        O  0.65334857  0.84632130  0.03102504    -0.56300
O807        O  0.81054592  0.72668351  0.90515013    -0.57500
C808        C  0.81782239  0.71958042  0.84584471     0.75200
O809        O  0.78437573  0.67841316  0.87421794    -0.58600
C810        C  0.79684644  0.72440357  0.91660151     0.75100
C811        C  0.76174805  0.73862253  0.87034155     0.77500
Cd812      Cd  0.79302492  0.71328999  0.87763131     1.37500
O813        O  0.82162445  0.72667360  0.86192941    -0.57500
O814        O  0.77883562  0.74391645  0.87191852    -0.56300
C815        C  0.79857708  0.67301854  0.88393723     0.77500
O816        O  0.75877812  0.72077752  0.87020416    -0.58600
O817        O  0.80262751  0.71004741  0.84485818    -0.57100
O818        O  0.78172576  0.71746355  0.90975571    -0.57100
O819        O  0.80923905  0.68595428  0.89035767    -0.56300
O820        O  0.81887796  0.72844750  0.05210488    -0.57500
C821        C  0.79401991  0.72592024  0.99747554     0.75200
O822        O  0.78533751  0.67799603  0.03859460    -0.58600
C823        C  0.81650062  0.71926633  0.06741121     0.75100
C824        C  0.75802215  0.73485550  0.04841392     0.77500
Cd825      Cd  0.79101421  0.71374266  0.03635648     1.37500
O826        O  0.80711095  0.72968644  0.00923490    -0.57500
O827        O  0.77464110  0.74170911  0.04826388    -0.56300
C828        C  0.80184634  0.67426433  0.03235654     0.77500
O829        O  0.75644385  0.71752200  0.04353990    -0.58600
O830        O  0.77962842  0.71728515  0.00391215    -0.57100
O831        O  0.80165581  0.70916160  0.06859635    -0.57100
O832        O  0.81178276  0.68836394  0.02738260    -0.56300
O833        O  0.69310570  0.92598436  0.78847402    -0.57500
C834        C  0.68977130  0.97770696  0.76215750     0.75200
O835        O  0.68164945  0.93327834  0.72542483    -0.58600
C836        C  0.68492466  0.90991845  0.78778721     0.75100
C837        C  0.63821847  0.94220624  0.77167970     0.77500
Cd838      Cd  0.67749301  0.93880868  0.76029897     1.37500
O839        O  0.69498100  0.96585764  0.77462313    -0.57500
O840        O  0.65213156  0.94848414  0.78106016    -0.56300
C841        C  0.69889461  0.92828416  0.72684004     0.77500
O842        O  0.64196105  0.93496968  0.75560786    -0.58600
O843        O  0.67919212  0.97143845  0.74909116    -0.57100
O844        O  0.67457058  0.90676302  0.77342764    -0.57100
O845        O  0.70514204  0.92647211  0.74352826    -0.56300
O846        O  0.69061478  0.11208204  0.79096220    -0.57500
C847        C  0.68858704  0.05850407  0.76507991     0.75200
O848        O  0.64079206  0.09960107  0.75511358    -0.58600
C849        C  0.68252114  0.12802951  0.78886509     0.75100
C850        C  0.69680678  0.10691931  0.72930823     0.77500
Cd851      Cd  0.67576603  0.09717170  0.76277419     1.37500
O852        O  0.69141938  0.06987377  0.77872064    -0.57500
O853        O  0.70398475  0.10729066  0.74571939    -0.56300
C854        C  0.63614298  0.09007613  0.76967999     0.77500
O855        O  0.67916892  0.10334744  0.72824890    -0.58600
O856        O  0.68036237  0.06533876  0.75071721    -0.57100
O857        O  0.67178861  0.12949553  0.77458248    -0.57100
O858        O  0.64952956  0.08474347  0.78027334    -0.56300
O859        O  0.82189033  0.93098555  0.66499662    -0.57500
C860        C  0.79266643  0.98283943  0.66232909     0.75200
O861        O  0.78422377  0.94071375  0.61631837    -0.58600
C862        C  0.81796249  0.91374044  0.66147738     0.75100
C863        C  0.75924590  0.93160662  0.67228784     0.77500
Cd864      Cd  0.79224087  0.94354827  0.65116901     1.37500
O865        O  0.80672010  0.97225704  0.66598487    -0.57500
O866        O  0.77554378  0.93321717  0.67966593    -0.56300
C867        C  0.80107610  0.94421982  0.61101457     0.77500
O868        O  0.75810265  0.93495776  0.65465029    -0.58600
O869        O  0.77894366  0.97517277  0.65371107    -0.57100
O870        O  0.80193144  0.91065564  0.65392396    -0.57100
O871        O  0.81293917  0.94757331  0.62397634    -0.56300
O872        O  0.80280805  0.07601993  0.66534832    -0.57500
C873        C  0.81360882  0.13190725  0.65381672     0.75200
O874        O  0.78003538  0.10400652  0.61399399    -0.58600
C875        C  0.78988891  0.06383712  0.66223623     0.75100
C876        C  0.75280151  0.11192256  0.67068516     0.77500
Cd877      Cd  0.78609043  0.10206404  0.64919138     1.37500
O878        O  0.81429536  0.11683042  0.66360516    -0.57500
O879        O  0.76944501  0.11284802  0.67731708    -0.56300
C880        C  0.79362392  0.09274393  0.61029258     0.77500
O881        O  0.75132558  0.10779787  0.65324252    -0.58600
O882        O  0.79970259  0.13341499  0.64253718    -0.57100
O883        O  0.77499135  0.06982265  0.65423821    -0.57100
O884        O  0.80281709  0.08646230  0.62426273    -0.56300
O885        O  0.93239054  0.72514297  0.77627314    -0.57500
C886        C  0.87371846  0.72189141  0.78619732     0.75200
O887        O  0.89814773  0.71589783  0.72663508    -0.58600
C888        C  0.94366470  0.71476043  0.76690578     0.75100
C889        C  0.90222136  0.67145992  0.77226132     0.77500
Cd890      Cd  0.90376685  0.71093219  0.76148095     1.37500
O891        O  0.89079736  0.72636891  0.78980775    -0.57500
O892        O  0.90442981  0.68513991  0.78361735    -0.56300
C893        C  0.89726616  0.73386820  0.72823061     0.77500
O894        O  0.89958804  0.67579297  0.75496059    -0.58600
O895        O  0.87074143  0.71348856  0.77057725    -0.57100
O896        O  0.93636793  0.70386465  0.75467430    -0.57100
O897        O  0.89892608  0.74054065  0.74475655    -0.56300
O898        O  0.03597668  0.72710386  0.77787813    -0.57500
C899        C  0.09473482  0.72398061  0.78888896     0.75200
O900        O  0.06542286  0.67810132  0.75646230    -0.58600
C901        C  0.02500361  0.71766907  0.76714888     0.75100
C902        C  0.07267131  0.73583634  0.73018205     0.77500
Cd903      Cd  0.06497504  0.71328797  0.76346927     1.37500
O904        O  0.07785568  0.72979998  0.79116837    -0.57500
O905        O  0.06809697  0.74285426  0.74600223    -0.56300
C906        C  0.06369951  0.67366900  0.77384408     0.77500
O907        O  0.07436598  0.71787557  0.72956654    -0.58600
O908        O  0.09789227  0.71401754  0.77427562    -0.57100
O909        O  0.03270461  0.70731255  0.75475516    -0.57100
O910        O  0.06363127  0.68723182  0.78554709    -0.56300
O911        O  0.88939930  0.85483332  0.66698611    -0.57500
C912        C  0.94200641  0.82988889  0.65810284     0.75200
O913        O  0.89647727  0.79195218  0.65465683    -0.58600
C914        C  0.87291117  0.85323552  0.65993048     0.75100
C915        C  0.90576128  0.83300487  0.61039814     0.77500
Cd916      Cd  0.90225804  0.82671431  0.65044106     1.37500
O917        O  0.93103142  0.84361173  0.66194794    -0.57500
O918        O  0.91361869  0.84308730  0.62292799    -0.56300
C919        C  0.89391841  0.79313587  0.67239906     0.77500
O920        O  0.89514638  0.81956310  0.61612962    -0.58600
O921        O  0.93429269  0.81485384  0.65196789    -0.57100
O922        O  0.87027629  0.83920855  0.64904000    -0.57100
O923        O  0.89448255  0.80965298  0.67944510    -0.56300
O924        O  0.07805462  0.85366369  0.66078551    -0.57500
C925        C  0.02340573  0.82819299  0.65671253     0.75200
O926        O  0.06396949  0.81569528  0.61337877    -0.58600
C927        C  0.09444030  0.84943854  0.65464355     0.75100
C928        C  0.07226814  0.79295464  0.67210660     0.77500
Cd929      Cd  0.06290896  0.82456526  0.64813186     1.37500
O930        O  0.03498263  0.84112547  0.66162504    -0.57500
O931        O  0.06850960  0.80939539  0.67828200    -0.56300
C932        C  0.06131406  0.83284939  0.60835948     0.77500
O933        O  0.07191277  0.79079631  0.65423560    -0.58600
O934        O  0.03021288  0.81406376  0.64802185    -0.57100
O935        O  0.09625498  0.83310467  0.64736225    -0.57100
O936        O  0.05941479  0.84488578  0.62144728    -0.56300
O937        O  0.80573336  0.96746745  0.24710230    -0.57500
C938        C  0.81612878  0.90925677  0.25815684     0.75200
O939        O  0.78339630  0.93737285  0.29800049    -0.58600
C940        C  0.79181474  0.97866964  0.24927565     0.75100
C941        C  0.75645372  0.92962671  0.24159675     0.77500
Cd942      Cd  0.78975484  0.94025603  0.26285932     1.37500
O943        O  0.81830755  0.92461201  0.24896494    -0.57500
O944        O  0.77297410  0.93022489  0.23462234    -0.56300
C945        C  0.79769949  0.94746314  0.30247435     0.77500
O946        O  0.75511224  0.93307311  0.25920463    -0.58600
O947        O  0.80145044  0.90814255  0.26841707    -0.57100
O948        O  0.77717078  0.97187435  0.25713267    -0.57100
O949        O  0.80695356  0.95445110  0.28881541    -0.56300
O950        O  0.81210671  0.11386167  0.24899677    -0.57500
C951        C  0.79059385  0.05938366  0.24962181     0.75200
O952        O  0.78159357  0.09825017  0.30062233    -0.58600
C953        C  0.80960245  0.12925647  0.25795710     0.75100
C954        C  0.75059545  0.10669046  0.24630210     0.77500
Cd955      Cd  0.78573098  0.09677463  0.26493477     1.37500
O956        O  0.80384382  0.07157135  0.24874611    -0.57500
O957        O  0.76677809  0.10871637  0.23883772    -0.56300
C958        C  0.79597481  0.08790244  0.30391323     0.77500
O959        O  0.75031670  0.10064445  0.26325989    -0.58600
O960        O  0.77490623  0.06510056  0.25615027    -0.57100
O961        O  0.79581087  0.12953073  0.26943183    -0.57100
O962        O  0.80478246  0.08199378  0.28955342    -0.56300
O963        O  0.69093648  0.92649873  0.12346111    -0.57500
C964        C  0.68823930  0.97948555  0.15008177     0.75200
O965        O  0.64067457  0.93863564  0.15823935    -0.58600
C966        C  0.68350724  0.91018142  0.12551471     0.75100
C967        C  0.69810243  0.93082146  0.18478108     0.77500
Cd968      Cd  0.67608784  0.94057945  0.15171829     1.37500
O969        O  0.69193270  0.96826653  0.13651831    -0.57500
O970        O  0.70493297  0.93144209  0.16823885    -0.56300
C971        C  0.63658599  0.94812857  0.14346930     0.77500
O972        O  0.68029454  0.93326115  0.18617968    -0.58600
O973        O  0.67964392  0.97244594  0.16414317    -0.57100
O974        O  0.67291138  0.90800010  0.13983782    -0.57100
O975        O  0.65037255  0.95307272  0.13317501    -0.56300
O976        O  0.68945705  0.07250324  0.13694644    -0.57500
C977        C  0.68397518  0.12873801  0.12706010     0.75200
O978        O  0.63869274  0.10652177  0.15689610    -0.58600
C979        C  0.68643085  0.06055735  0.15004119     0.75100
C980        C  0.69281282  0.10740580  0.18943009     0.77500
Cd981      Cd  0.67382435  0.09915067  0.15375701     1.37500
O982        O  0.69071039  0.11212452  0.12571095    -0.57500
O983        O  0.70011820  0.11086780  0.17344071    -0.56300
C984        C  0.63381600  0.09443986  0.14444366     0.77500
O985        O  0.67582154  0.10143050  0.18919599    -0.58600
O986        O  0.67329144  0.13162890  0.14118141    -0.57100
O987        O  0.67851147  0.06683281  0.16481767    -0.57100
O988        O  0.64706331  0.08467504  0.13747766    -0.56300
O989        O  0.92990265  0.83862297  0.25036925    -0.57500
C990        C  0.87350411  0.85041481  0.26266117     0.75200
O991        O  0.89603248  0.78763551  0.26319307    -0.58600
C992        C  0.94175820  0.82587190  0.25489387     0.75100
C993        C  0.91194470  0.82946891  0.30657922     0.77500
Cd994      Cd  0.90310318  0.82259876  0.26724417     1.37500
O995        O  0.88864663  0.85128398  0.25301189    -0.57500
O996        O  0.91674042  0.84013258  0.29303035    -0.56300
C997        C  0.89176132  0.78912118  0.24579413     0.77500
O998        O  0.90199012  0.81497815  0.30231016    -0.58600
O999        O  0.87172370  0.83613565  0.27345430    -0.57100
O1000       O  0.93540249  0.81194808  0.26426699    -0.57100
O1001       O  0.89199293  0.80576817  0.23905649    -0.56300
O1002       O  0.03455454  0.84142259  0.25169070    -0.57500
C1003       C  0.09331423  0.85088438  0.26304261     0.75200
O1004       O  0.06356175  0.81927982  0.30277274    -0.58600
C1005       C  0.02269620  0.82862967  0.25634066     0.75100
C1006       C  0.07054968  0.79236198  0.24553374     0.77500
Cd1007     Cd  0.06163765  0.82552061  0.26769501     1.37500
O1008       O  0.07798837  0.85351014  0.25397042    -0.57500
O1009       O  0.06976337  0.80901526  0.23882055    -0.56300
C1010       C  0.05450048  0.83439732  0.30665458     0.77500
O1011       O  0.06818606  0.79076303  0.26330422    -0.58600
O1012       O  0.09423992  0.83593681  0.27298077    -0.57100
O1013       O  0.02914905  0.81465451  0.26558226    -0.57100
O1014       O  0.04943080  0.84455345  0.29282664    -0.56300
O1015       O  0.88820895  0.73005700  0.12578006    -0.57500
C1016       C  0.94289617  0.72718944  0.14940336     0.75200
O1017       O  0.89634377  0.71545541  0.18712914    -0.58600
C1018       C  0.87339922  0.71980790  0.12655619     0.75100
C1019       C  0.91304299  0.67459234  0.14385196     0.77500
Cd1020     Cd  0.90439366  0.71382543  0.15250369     1.37500
O1021       O  0.93112669  0.73020716  0.13615560    -0.57500
O1022       O  0.91790162  0.68853603  0.13367873    -0.56300
C1023       C  0.89345970  0.73326458  0.18697585     0.77500
O1024       O  0.90352523  0.67845701  0.15862456    -0.58600
O1025       O  0.93658359  0.71883305  0.16395607    -0.57100
O1026       O  0.87287345  0.70753159  0.13965273    -0.57100
O1027       O  0.89447360  0.74134012  0.17100794    -0.56300
O1028       O  0.07642449  0.73048138  0.12295204    -0.57500
C1029       C  0.02357743  0.72708351  0.14781268     0.75200
O1030       O  0.06484856  0.68146776  0.15913439    -0.58600
C1031       C  0.09335159  0.72584022  0.12683080     0.75100
C1032       C  0.07264000  0.73701665  0.18618613     0.77500
Cd1033     Cd  0.06280349  0.71665567  0.15201472     1.37500
O1034       O  0.03610934  0.73420690  0.13709542    -0.57500
O1035       O  0.07084726  0.74482996  0.17017028    -0.56300
C1036       C  0.06313819  0.67674864  0.14185871     0.77500
O1037       O  0.07037222  0.71911227  0.18669776    -0.58600
O1038       O  0.02925824  0.71556292  0.16030025    -0.57100
O1039       O  0.09602790  0.71842540  0.14296366    -0.57100
O1040       O  0.06080116  0.69015568  0.13023973    -0.56300
O1041       O  0.27718575  0.83879674  0.90368171    -0.57500
C1042       C  0.28088035  0.85075117  0.84580765     0.75200
O1043       O  0.32634613  0.81947852  0.87148349    -0.58600
C1044       C  0.28439825  0.82640069  0.91458900     0.75100
C1045       C  0.26803148  0.79083546  0.87012401     0.77500
Cd1046     Cd  0.29106487  0.82450539  0.87512239     1.37500
O1047       O  0.27415413  0.85227082  0.86237492    -0.57500
O1048       O  0.26182522  0.80671257  0.87565376    -0.56300
C1049       C  0.33047360  0.83403486  0.88140034     0.77500
O1050       O  0.28533003  0.79033813  0.86500008    -0.58600
O1051       O  0.29172964  0.83675323  0.84289017    -0.57100
O1052       O  0.29389892  0.81324130  0.90690998    -0.57100
O1053       O  0.31669692  0.84380825  0.88730690    -0.56300
O1054       O  0.28150333  0.85258466  0.04989041    -0.57500
C1055       C  0.28558319  0.82531880  0.99581908     0.75200
O1056       O  0.32943365  0.81669066  0.03718275    -0.58600
C1057       C  0.28887621  0.84917903  0.06595807     0.75100
C1058       C  0.26817390  0.79348766  0.04265852     0.77500
Cd1059     Cd  0.29443389  0.82389797  0.03511342     1.37500
O1060       O  0.27982962  0.83847423  0.00669630    -0.57500
O1061       O  0.26387956  0.81090885  0.04273819    -0.56300
C1062       C  0.33393662  0.83340919  0.03181282     0.77500
O1063       O  0.28578333  0.78970517  0.04129817    -0.58600
O1064       O  0.29525553  0.81223923  0.00334029    -0.57100
O1065       O  0.29744047  0.83346292  0.06786718    -0.57100
O1066       O  0.32046779  0.84457960  0.02797137    -0.56300
O1067       O  0.14843129  0.72745488  0.86511890    -0.57500
C1068       C  0.17235881  0.71341112  0.91746406     0.75200
O1069       O  0.18261754  0.67540203  0.87501974    -0.58600
C1070       C  0.15061743  0.72196656  0.84816079     0.75100
C1071       C  0.20935432  0.73352943  0.87158981     0.77500
Cd1072     Cd  0.17603242  0.71038118  0.87734912     1.37500
O1073       O  0.16194313  0.72331158  0.90664167    -0.57500
O1074       O  0.19429705  0.73930129  0.87938266    -0.56300
C1075       C  0.16514738  0.67103288  0.87667702     0.77500
O1076       O  0.20928981  0.71647204  0.86563327    -0.58600
O1077       O  0.18419838  0.70247986  0.90960144    -0.57100
O1078       O  0.16549669  0.71254897  0.84461872    -0.57100
O1079       O  0.15361237  0.68465796  0.87807232    -0.56300
O1080       O  0.16181381  0.72338156  0.00955138    -0.57500
C1081       C  0.15111741  0.71997452  0.06894464     0.75200
O1082       O  0.18404903  0.67597828  0.04363836    -0.58600
C1083       C  0.17246551  0.71363546  0.99882423     0.75100
C1084       C  0.20869583  0.73564324  0.04379355     0.77500
Cd1085     Cd  0.17651482  0.71066711  0.03867642     1.37500
O1086       O  0.14705071  0.72403073  0.05191151    -0.57500
O1087       O  0.19204851  0.74111051  0.03989542    -0.56300
C1088       C  0.16736698  0.67088759  0.03884946     0.77500
O1089       O  0.21073835  0.71783260  0.04603877    -0.58600
O1090       O  0.16744675  0.71307308  0.07178182    -0.57100
O1091       O  0.18531495  0.70389905  0.00666361    -0.57100
O1092       O  0.15599296  0.68401519  0.03449346    -0.56300
O1093       O  0.27294090  0.92762338  0.79277453    -0.57500
C1094       C  0.27456804  0.97924802  0.76608392     0.75200
O1095       O  0.32330344  0.93629127  0.75949020    -0.58600
C1096       C  0.28052638  0.91141802  0.79108253     0.75100
C1097       C  0.26747315  0.93001989  0.73022162     0.77500
Cd1098     Cd  0.28804522  0.94105869  0.76414925     1.37500
O1099       O  0.27105566  0.96775059  0.77946827    -0.57500
O1100       O  0.25989271  0.93142007  0.74637824    -0.56300
C1101       C  0.32800060  0.94809928  0.77226967     0.77500
O1102       O  0.28524481  0.93295767  0.72962171    -0.58600
O1103       O  0.28369546  0.97267632  0.75212649    -0.57100
O1104       O  0.29089554  0.90901284  0.77667015    -0.57100
O1105       O  0.31448288  0.95669561  0.78023526    -0.56300
O1106       O  0.27523944  0.11126899  0.78996017    -0.57500
C1107       C  0.27511994  0.05988469  0.76271816     0.75200
O1108       O  0.28482692  0.10397131  0.72611122    -0.58600
C1109       C  0.28331489  0.12733203  0.78855030     0.75100
C1110       C  0.32938505  0.09076940  0.76747145     0.77500
Cd1111     Cd  0.28937459  0.09807341  0.76074795     1.37500
O1112       O  0.27239399  0.07133427  0.77632521    -0.57500
O1113       O  0.31596076  0.08201672  0.77549411    -0.56300
C1114       C  0.26760151  0.10888999  0.72779513     0.77500
O1115       O  0.32460441  0.10318015  0.75531273    -0.58600
O1116       O  0.28390904  0.06642076  0.74853021    -0.57100
O1117       O  0.29363983  0.12980201  0.77407864    -0.57100
O1118       O  0.26146018  0.11034324  0.74453778    -0.56300
O1119       O  0.16566559  0.96504998  0.66071160    -0.57500
C1120       C  0.15349722  0.90680596  0.65338806     0.75200
O1121       O  0.18716304  0.93283747  0.61122770    -0.58600
C1122       C  0.17975926  0.97583837  0.65742863     0.75100
C1123       C  0.21194241  0.92633322  0.67066033     0.77500
Cd1124     Cd  0.18054848  0.93668889  0.64641775     1.37500
O1125       O  0.15089326  0.92342422  0.65980547    -0.57500
O1126       O  0.19524124  0.92913282  0.67652820    -0.56300
C1127       C  0.17390870  0.94414876  0.60655192     0.77500
O1128       O  0.21442500  0.92754152  0.65285628    -0.58600
O1129       O  0.16860925  0.90423571  0.64404892    -0.57100
O1130       O  0.19403755  0.96805104  0.64983560    -0.57100
O1131       O  0.16447636  0.95128630  0.61994168    -0.56300
O1132       O  0.14328377  0.10819489  0.66752781    -0.57500
C1133       C  0.17701773  0.05804956  0.65970282     0.75200
O1134       O  0.17812486  0.10608802  0.61836481    -0.58600
C1135       C  0.14541340  0.12560731  0.66332520     0.75100
C1136       C  0.20684489  0.10882690  0.67380807     0.77500
Cd1137     Cd  0.17357350  0.09805236  0.65280250     1.37500
O1138       O  0.16323976  0.06714224  0.66693796    -0.57500
O1139       O  0.19078565  0.10646593  0.68147722    -0.56300
C1140       C  0.16485906  0.09499166  0.61311787     0.77500
O1141       O  0.20755260  0.10711027  0.65592818    -0.58600
O1142       O  0.18879897  0.06783079  0.65041006    -0.57100
O1143       O  0.16071497  0.12991671  0.65493965    -0.57100
O1144       O  0.15617701  0.08611051  0.62602623    -0.56300
O1145       O  0.81639488  0.31633431  0.86418619    -0.57500
C1146       C  0.78916244  0.31902195  0.91914888     0.75200
O1147       O  0.78096099  0.36436360  0.87587399    -0.58600
C1148       C  0.81369827  0.32490193  0.84857381     0.75100
C1149       C  0.75607016  0.30490465  0.87010364     0.77500
Cd1150     Cd  0.78756816  0.32923955  0.87975885     1.37500
O1151       O  0.80254751  0.31442000  0.90800885    -0.57500
O1152       O  0.77303755  0.29919172  0.87133644    -0.56300
C1153       C  0.79526803  0.36897015  0.88590987     0.77500
O1154       O  0.75354837  0.32265540  0.87226536    -0.58600
O1155       O  0.77505929  0.32729387  0.91173596    -0.57100
O1156       O  0.79862463  0.33455122  0.84740096    -0.57100
O1157       O  0.80470606  0.35548825  0.89298856    -0.56300
O1158       O  0.81368094  0.31578690  0.05557279    -0.57500
C1159       C  0.78736902  0.31872140  0.00057794     0.75200
O1160       O  0.75034338  0.32367315  0.04651750    -0.58600
C1161       C  0.81124851  0.32467934  0.07102729     0.75100
C1162       C  0.79502445  0.36858975  0.03323090     0.77500
Cd1163     Cd  0.78518869  0.32933128  0.03981239     1.37500
O1164       O  0.80048449  0.31389003  0.01195410    -0.57500
O1165       O  0.80416281  0.35443866  0.02715937    -0.56300
C1166       C  0.75232729  0.30582917  0.04859107     0.77500
O1167       O  0.77995099  0.36493451  0.04251320    -0.58600
O1168       O  0.77368700  0.32797394  0.00756137    -0.57100
O1169       O  0.79619304  0.33437657  0.07230167    -0.57100
O1170       O  0.76920056  0.29976575  0.04770602    -0.56300
O1171       O  0.69027047  0.19711321  0.90509165    -0.57500
C1172       C  0.68457698  0.18602904  0.84714106     0.75200
O1173       O  0.64167640  0.22135991  0.87186326    -0.58600
C1174       C  0.68471247  0.20996019  0.91637134     0.75100
C1175       C  0.70042255  0.24453316  0.86843984     0.77500
Cd1176     Cd  0.67619124  0.21263705  0.87693161     1.37500
O1177       O  0.68870326  0.18260763  0.86425395    -0.57500
O1178       O  0.70660052  0.22807634  0.87205914    -0.56300
C1179       C  0.63604714  0.20540459  0.87821190     0.77500
O1180       O  0.68249261  0.24645361  0.86829471    -0.58600
O1181       O  0.67731007  0.20215714  0.84390818    -0.57100
O1182       O  0.67545316  0.22357319  0.90924702    -0.57100
O1183       O  0.64862546  0.19430509  0.88440132    -0.56300
O1184       O  0.69201290  0.18409236  0.05262436    -0.57500
C1185       C  0.68315949  0.20779453  0.99746117     0.75200
O1186       O  0.64019907  0.21714541  0.03852053    -0.58600
C1187       C  0.68405813  0.18638003  0.06859521     0.75100
C1188       C  0.69752289  0.24445981  0.04621891     0.77500
Cd1189     Cd  0.67528883  0.21081313  0.03706657     1.37500
O1190       O  0.68924812  0.19516896  0.00875004    -0.57500
O1191       O  0.70451815  0.22827406  0.04288854    -0.56300
C1192       C  0.63591778  0.20002071  0.03454372     0.77500
O1193       O  0.67951864  0.24550362  0.04554723    -0.58600
O1194       O  0.67412025  0.22147208  0.00470500    -0.57100
O1195       O  0.67269647  0.20022911  0.06980993    -0.57100
O1196       O  0.64958286  0.18882951  0.03161209    -0.56300
O1197       O  0.03499704  0.31115592  0.77602002    -0.57500
C1198       C  0.09200740  0.32093337  0.78732548     0.75200
O1199       O  0.06710475  0.32458174  0.72503837    -0.58600
C1200       C  0.02283016  0.31611002  0.76375033     0.75100
C1201       C  0.05676083  0.36825587  0.76821739     0.77500
Cd1202     Cd  0.06202335  0.32813223  0.76019286     1.37500
O1203       O  0.07637442  0.31195103  0.78785675    -0.57500
O1204       O  0.04938762  0.35490106  0.77766301    -0.56300
C1205       C  0.07194126  0.30724981  0.72600855     0.77500
O1206       O  0.06681440  0.36337285  0.75411040    -0.58600
O1207       O  0.09377503  0.33282041  0.77398647    -0.57100
O1208       O  0.02905252  0.32575428  0.74996143    -0.57100
O1209       O  0.07361300  0.30045880  0.74248549    -0.56300
O1210       O  0.93048846  0.30998325  0.77858628    -0.57500
C1211       C  0.87201348  0.32252356  0.79048273     0.75200
O1212       O  0.89995877  0.36329769  0.75915769    -0.58600
C1213       C  0.94171282  0.31442489  0.76520328     0.75100
C1214       C  0.89201417  0.30748970  0.73059375     0.77500
Cd1215     Cd  0.90315048  0.32799177  0.76446797     1.37500
O1216       O  0.88774856  0.31414519  0.79301977    -0.57500
O1217       O  0.89114288  0.30053543  0.74708174    -0.56300
C1218       C  0.91042457  0.36756703  0.77319195     0.77500
O1219       O  0.89716286  0.32477949  0.72950141    -0.58600
O1220       O  0.87075714  0.33267171  0.77572856    -0.57100
O1221       O  0.93485594  0.32454570  0.75211235    -0.57100
O1222       O  0.91718339  0.35383562  0.78251013    -0.56300
O1223       O  0.88773370  0.18752060  0.66469948    -0.57500
C1224       C  0.94124173  0.21212893  0.66577971     0.75200
O1225       O  0.90071070  0.22301632  0.61710078    -0.58600
C1226       C  0.87332733  0.18872389  0.65398047     0.75100
C1227       C  0.89239099  0.25046361  0.67245436     0.77500
Cd1228     Cd  0.90323259  0.21641207  0.65198601     1.37500
O1229       O  0.92867063  0.19982257  0.66979322    -0.57500
O1230       O  0.89013176  0.23391100  0.67913744    -0.56300
C1231       C  0.91142468  0.20918121  0.61280511     0.77500
O1232       O  0.89822560  0.25130581  0.65550318    -0.58600
O1233       O  0.93585503  0.22648621  0.65646732    -0.57100
O1234       O  0.87231097  0.20338479  0.64366132    -0.57100
O1235       O  0.91827476  0.19979280  0.62638935    -0.56300
O1236       O  0.03271213  0.19620093  0.67154717    -0.57500
C1237       C  0.08909146  0.18475959  0.66393238     0.75200
O1238       O  0.06474392  0.21505485  0.61963002    -0.58600
C1239       C  0.02170655  0.21024917  0.66934046     0.75100
C1240       C  0.07167396  0.24724631  0.67167773     0.77500
Cd1241     Cd  0.05977216  0.21165629  0.65478279     1.37500
O1242       O  0.07275571  0.18352606  0.67134140    -0.57500
O1243       O  0.07334281  0.23134671  0.67986657    -0.56300
C1244       C  0.05317020  0.20185454  0.61546278     0.77500
O1245       O  0.06525639  0.24686645  0.65489239    -0.58600
O1246       O  0.09181080  0.19863625  0.65285774    -0.57100
O1247       O  0.02868632  0.22475772  0.66137699    -0.57100
O1248       O  0.04458027  0.19425875  0.62919332    -0.56300
C1249       C  0.96141410  0.20999916  0.67095595    -0.05800
C1250       C  0.97138936  0.22627662  0.67673096    -0.16900
C1251       C  0.99111833  0.22611720  0.67865423     0.11400
C1252       C  0.00131012  0.20947701  0.67413393    -0.05700
C1253       C  0.99122777  0.19269808  0.67017257    -0.16900
C1254       C  0.97143261  0.19283840  0.66826568     0.11500
S1255       S  0.00251236  0.24771851  0.68649673    -0.31900
S1256       S  0.96017981  0.17133070  0.66007891    -0.31900
H1257       H  0.94944875  0.18036773  0.64592634     0.29500
H1258       H  0.01816129  0.23862775  0.69487757     0.29500
H1259       H  0.96378943  0.23939651  0.67926747     0.20100
H1260       H  0.99889043  0.17984569  0.66667292     0.20100
C1261       C  0.88850980  0.29538726  0.71365360    -0.05800
C1262       C  0.89989128  0.29792974  0.69753373    -0.16900
C1263       C  0.90030337  0.28432621  0.68298544     0.11400
C1264       C  0.88920667  0.26755958  0.68452608    -0.05700
C1265       C  0.87664198  0.26589428  0.69988024    -0.16900
C1266       C  0.87607465  0.27959908  0.71432490     0.11500
S1267       S  0.91687753  0.28822757  0.66400825    -0.31900
S1268       S  0.85943303  0.27669685  0.73357810    -0.31900
H1269       H  0.85374841  0.25804179  0.72916018     0.29500
H1270       H  0.90293999  0.28623535  0.64987749     0.29500
H1271       H  0.90945933  0.30999333  0.69679672     0.20100
H1272       H  0.86768468  0.25340970  0.70089843     0.20100
C1273       C  0.07464684  0.29488331  0.70914537    -0.05800
C1274       C  0.08868786  0.28077221  0.70991682    -0.16900
C1275       C  0.08946563  0.26617665  0.69644531     0.11400
C1276       C  0.07561059  0.26521122  0.68200896    -0.05700
C1277       C  0.06281409  0.28034266  0.68005205    -0.16900
C1278       C  0.06200738  0.29497436  0.69355208     0.11500
S1279       S  0.10817183  0.24889021  0.69871090    -0.31900
S1280       S  0.04295635  0.31181807  0.69137687    -0.31900
H1281       H  0.03666803  0.30947353  0.71013296     0.29500
H1282       H  0.10901284  0.24445734  0.67930951     0.29500
H1283       H  0.09875748  0.28072965  0.72151338     0.20100
H1284       H  0.05212151  0.27981034  0.66903494     0.20100
C1285       C  0.00228682  0.31145216  0.76507709    -0.05800
C1286       C  0.99213890  0.30950494  0.74808143    -0.16900
C1287       C  0.97235879  0.30814874  0.74789134     0.11400
C1288       C  0.96214220  0.30938681  0.76506337    -0.05700
C1289       C  0.97227562  0.30933672  0.78218887    -0.16900
C1290       C  0.99218851  0.31053822  0.78239257     0.11500
S1291       S  0.96100393  0.30520330  0.72517405    -0.31900
S1292       S  0.00355367  0.31287513  0.80509866    -0.31900
H1293       H  0.01424181  0.32895947  0.79986961     0.29500
H1294       H  0.94539692  0.29485768  0.73218700     0.29500
H1295       H  0.99967227  0.30946732  0.73471134     0.20100
H1296       H  0.96463938  0.31008236  0.79547096     0.20100
C1297       C  0.68803666  0.20899053  0.93696134    -0.05800
C1298       C  0.68639933  0.19138179  0.94619727    -0.16900
C1299       C  0.68520613  0.19032518  0.96598703     0.11400
C1300       C  0.68626681  0.20719594  0.97681314    -0.05700
C1301       C  0.68914877  0.22458674  0.96753867    -0.16900
C1302       C  0.69025273  0.22565498  0.94787470     0.11500
S1303       S  0.68043063  0.16739247  0.97630797    -0.31900
S1304       S  0.69449046  0.24876682  0.93761951    -0.31900
H1305       H  0.70519289  0.24198136  0.92224711     0.29500
H1306       H  0.66641257  0.17405163  0.98880098     0.29500
H1307       H  0.68460178  0.17852742  0.93793616     0.20100
H1308       H  0.69037414  0.23757124  0.97570689     0.20100
C1309       C  0.73631740  0.29204009  0.05131826    -0.05800
C1310       C  0.74084751  0.27423076  0.05908722    -0.16900
C1311       C  0.72809362  0.25889756  0.05859799     0.11400
C1312       C  0.71009090  0.26115223  0.05003831    -0.05700
C1313       C  0.70488730  0.27932301  0.04358273    -0.16900
C1314       C  0.71767419  0.29476167  0.04427497     0.11500
S1315       S  0.73511632  0.23654771  0.06912015    -0.31900
S1316       S  0.70976903  0.31705217  0.03469485    -0.31900
H1317       H  0.71518895  0.32742766  0.05084404     0.29500
H1318       H  0.75391412  0.24163620  0.07353784     0.29500
H1319       H  0.75480705  0.27212259  0.06509897     0.20100
H1320       H  0.69106026  0.28134589  0.03720280     0.20100
C1321       C  0.85610483  0.32159056  0.80432939    -0.05800
C1322       C  0.84314641  0.33670982  0.80463730    -0.16900
C1323       C  0.82882464  0.33792280  0.81837058     0.11400
C1324       C  0.82757506  0.32381949  0.83267778    -0.05700
C1325       C  0.84020039  0.30840542  0.83201719    -0.16900
C1326       C  0.85399625  0.30687884  0.81779800     0.11500
S1327       S  0.81298830  0.35809017  0.81764158    -0.31900
S1328       S  0.86774068  0.28537380  0.81709556    -0.31900
H1329       H  0.86733891  0.28390674  0.79723224     0.29500
H1330       H  0.81992314  0.36639698  0.80090445     0.29500
H1331       H  0.84456511  0.34797325  0.79429779     0.20100
H1332       H  0.83907261  0.29718047  0.84246264     0.20100
C1333       C  0.71365942  0.26072619  0.86555414    -0.05800
C1334       C  0.70840177  0.27879183  0.87211478    -0.16900
C1335       C  0.72148538  0.29386382  0.87283190     0.11400
C1336       C  0.74043445  0.29096594  0.86684133    -0.05700
C1337       C  0.74531804  0.27312369  0.85935569    -0.16900
C1338       C  0.73225438  0.25815450  0.85849903     0.11500
S1339       S  0.71354410  0.31571515  0.88331144    -0.31900
S1340       S  0.74040862  0.23611163  0.84837385    -0.31900
H1341       H  0.72302081  0.23164508  0.83961977     0.29500
H1342       H  0.71837540  0.32659753  0.86730852     0.29500
H1343       H  0.69424723  0.28095952  0.87766826     0.20100
H1344       H  0.75964423  0.27062375  0.85441231     0.20100
C1345       C  0.78970371  0.31563362  0.93989661    -0.05800
C1346       C  0.77237836  0.31301415  0.94937791    -0.16900
C1347       C  0.77143234  0.31232866  0.96913922     0.11400
C1348       C  0.78813800  0.31473857  0.97997914    -0.05700
C1349       C  0.80564069  0.31596845  0.97055714    -0.16900
C1350       C  0.80659304  0.31662949  0.95071316     0.11500
S1351       S  0.74841738  0.30839897  0.97963905    -0.31900
S1352       S  0.82954512  0.32062870  0.94024641    -0.31900
H1353       H  0.82342054  0.33585578  0.92888929     0.29500
H1354       H  0.75527426  0.29807218  0.99525779     0.29500
H1355       H  0.75934665  0.31178088  0.94131407     0.20100
H1356       H  0.81855234  0.31784093  0.97868692     0.20100
C1357       C  0.10388806  0.17018804  0.66714069    -0.05800
C1358       C  0.09823269  0.15125932  0.67001769    -0.16900
C1359       C  0.11145042  0.13642845  0.67026191     0.11400
C1360       C  0.13091487  0.14045974  0.66719772    -0.05700
C1361       C  0.13662793  0.15958670  0.66578246    -0.16900
C1362       C  0.12343331  0.17444705  0.66585285     0.11500
S1363       S  0.10227055  0.11273659  0.67330802    -0.31900
S1364       S  0.13182703  0.19872648  0.66445484    -0.31900
H1365       H  0.15135568  0.19469172  0.66446980     0.29500
H1366       H  0.11452486  0.10866221  0.68849498     0.29500
H1367       H  0.08328281  0.14785892  0.67132934     0.20100
H1368       H  0.15152935  0.16290808  0.66407250     0.20100
C1369       C  0.17966445  0.99668000  0.66101884    -0.05800
C1370       C  0.19487378  0.00734104  0.65375423    -0.16900
C1371       C  0.19475953  0.02714374  0.65375999     0.11400
C1372       C  0.17895490  0.03704677  0.66124888    -0.05700
C1373       C  0.16422570  0.02642626  0.66957965    -0.16900
C1374       C  0.16452970  0.00648373  0.66981345     0.11500
S1375       S  0.21528080  0.03859538  0.64362188    -0.31900
S1376       S  0.14525554  0.99459648  0.68166122    -0.31900
H1377       H  0.15717505  0.98174871  0.69119402     0.29500
H1378       H  0.20515750  0.04467872  0.62755295     0.29500
H1379       H  0.20684109  0.00022969  0.64729216     0.20100
H1380       H  0.15221696  0.03367394  0.67580487     0.20100
C1381       C  0.25457585  0.11193428  0.71149905    -0.05800
C1382       C  0.23889607  0.12394228  0.71422501    -0.16900
C1383       C  0.22359620  0.12410994  0.70150512     0.11400
C1384       C  0.22396779  0.11216544  0.68548415    -0.05700
C1385       C  0.24016828  0.10119829  0.68197461    -0.16900
C1386       C  0.25537325  0.10086273  0.69478230     0.11500
S1387       S  0.20344747  0.13923409  0.70613991    -0.31900
S1388       S  0.27407434  0.08415967  0.69017637    -0.31900
H1389       H  0.28838549  0.09810048  0.69118650     0.29500
H1390       H  0.21147790  0.14926003  0.72140468     0.29500
H1391       H  0.23819001  0.13252200  0.72692190     0.20100
H1392       H  0.24045510  0.09182972  0.66980365     0.20100
C1393       C  0.25555724  0.92563304  0.71329951    -0.05800
C1394       C  0.23839752  0.91583412  0.71626976    -0.16900
C1395       C  0.22454697  0.91442082  0.70205124     0.11400
C1396       C  0.22770055  0.92320280  0.68431980    -0.05700
C1397       C  0.24544243  0.93162188  0.68078368    -0.16900
C1398       C  0.25937922  0.93284708  0.69497137     0.11500
S1399       S  0.20288239  0.90141137  0.70680603    -0.31900
S1400       S  0.28082004  0.94554286  0.68932242    -0.31900
H1401       H  0.29261924  0.93047827  0.69495061     0.29500
H1402       H  0.20661609  0.89724043  0.72591371     0.29500
H1403       H  0.23556924  0.90976613  0.73006510     0.20100
H1404       H  0.24807101  0.93834384  0.66723448     0.20100
C1405       C  0.26915778  0.99955450  0.76633436    -0.05800
C1406       C  0.26720063  0.00861946  0.74875499    -0.16900
C1407       C  0.26739697  0.02842857  0.74722232     0.11400
C1408       C  0.26968947  0.03956104  0.76372319    -0.05700
C1409       C  0.26938585  0.03056511  0.78147726    -0.16900
C1410       C  0.26897057  0.01070911  0.78297677     0.11500
S1411       S  0.26502372  0.03912659  0.72405707    -0.31900
S1412       S  0.27025838  0.00064218  0.80635295    -0.31900
H1413       H  0.25477477  0.98833738  0.80335455     0.29500
H1414       H  0.26637184  0.02229510  0.71341740     0.29500
H1415       H  0.26645335  0.00007747  0.73603205     0.20100
H1416       H  0.27073614  0.03896787  0.79425675     0.20100
C1417       C  0.17083965  0.71399304  0.93826943    -0.05800
C1418       C  0.17334026  0.69688627  0.94813128    -0.16900
C1419       C  0.17277012  0.69628305  0.96783569     0.11400
C1420       C  0.17018024  0.71327497  0.97813768    -0.05700
C1421       C  0.16688147  0.73029296  0.96835919    -0.16900
C1422       C  0.16740578  0.73087658  0.94853750     0.11500
S1423       S  0.17492734  0.67327612  0.97895068    -0.31900
S1424       S  0.16513181  0.75375035  0.93733807    -0.31900
H1425       H  0.17972751  0.75065844  0.92412619     0.29500
H1426       H  0.16218393  0.67718145  0.99375414     0.29500
H1427       H  0.17556173  0.68378078  0.94039420     0.20100
H1428       H  0.16493760  0.74337607  0.97619718     0.20100
C1429       C  0.22450011  0.74985405  0.04483467    -0.05800
C1430       C  0.22031840  0.76845509  0.03897533    -0.16900
C1431       C  0.23417747  0.78257333  0.03788220     0.11400
C1432       C  0.25308852  0.77859482  0.04342150    -0.05700
C1433       C  0.25744424  0.76003110  0.04938334    -0.16900
C1434       C  0.24341842  0.74572754  0.05029531     0.11500
S1435       S  0.22666732  0.80494462  0.02793076    -0.31900
S1436       S  0.25061597  0.72275096  0.05877521    -0.31900
H1437       H  0.23549651  0.72124411  0.07168946     0.29500
H1438       H  0.24173439  0.80584120  0.01488073     0.29500
H1439       H  0.20609172  0.77205034  0.03443541     0.20100
H1440       H  0.27182218  0.75667582  0.05361511     0.20100
C1441       C  0.27732166  0.86530451  0.83106251    -0.05800
C1442       C  0.27262991  0.88379460  0.83689134    -0.16900
C1443       C  0.27312604  0.89911040  0.82424577     0.11400
C1444       C  0.27786904  0.89591029  0.80504800    -0.05700
C1445       C  0.28119065  0.87720336  0.79900696    -0.16900
C1446       C  0.28081342  0.86194589  0.81164367     0.11500
S1447       S  0.26931105  0.92242861  0.83400245    -0.31900
S1448       S  0.28495824  0.83863834  0.80194010    -0.31900
H1449       H  0.27158364  0.82952640  0.81364500     0.29500
H1450       H  0.28610695  0.93002996  0.82629313     0.29500
H1451       H  0.26987136  0.88663347  0.85170650     0.20100
H1452       H  0.28433928  0.87439774  0.78426050     0.20100
C1453       C  0.22609767  0.74630526  0.87071528    -0.05800
C1454       C  0.22982637  0.75720677  0.88688717    -0.16900
C1455       C  0.24439600  0.77061540  0.88726840     0.11400
C1456       C  0.25543914  0.77393226  0.87091200    -0.05700
C1457       C  0.25243055  0.76246105  0.85488218    -0.16900
C1458       C  0.23775847  0.74875468  0.85457163     0.11500
S1459       S  0.24831674  0.78299193  0.90928144    -0.31900
S1460       S  0.23371378  0.73600788  0.83282891    -0.31900
H1461       H  0.21381151  0.73600548  0.83418682     0.29500
H1462       H  0.26813099  0.78379536  0.90718726     0.29500
H1463       H  0.22127348  0.75522702  0.89949045     0.20100
H1464       H  0.26074204  0.76494602  0.84222557     0.20100
C1465       C  0.28211113  0.82543100  0.97520878    -0.05800
C1466       C  0.28105054  0.84292901  0.96572358    -0.16900
C1467       C  0.28139837  0.84383460  0.94592972     0.11400
C1468       C  0.28219278  0.82682978  0.93532874    -0.05700
C1469       C  0.28206283  0.80935205  0.94485411    -0.16900
C1470       C  0.28188303  0.80840459  0.96459225     0.11500
S1471       S  0.28258829  0.86706348  0.93526801    -0.31900
S1472       S  0.28107400  0.78531340  0.97587939    -0.31900
H1473       H  0.28054141  0.77426269  0.95930255     0.29500
H1474       H  0.29733542  0.86237053  0.92272633     0.29500
H1475       H  0.28126171  0.85604188  0.97375628     0.20100
H1476       H  0.28240812  0.79632135  0.93674836     0.20100
C1477       C  0.13729464  0.72276868  0.08457665    -0.05800
C1478       C  0.12171079  0.73486125  0.08167143    -0.16900
C1479       C  0.10774972  0.73733413  0.09558910     0.11400
C1480       C  0.10907806  0.72724895  0.11288405    -0.05700
C1481       C  0.12508446  0.71585383  0.11604906    -0.16900
C1482       C  0.13886476  0.71319259  0.10214039     0.11500
S1483       S  0.08883394  0.75366735  0.09035133    -0.31900
S1484       S  0.15701607  0.69598606  0.10735040    -0.31900
H1485       H  0.15385546  0.68556985  0.09062528     0.29500
H1486       H  0.08841920  0.76146200  0.10868561     0.29500
H1487       H  0.12034446  0.74248592  0.06841941     0.20100
H1488       H  0.12633900  0.70783105  0.12907943     0.20100
C1489       C  0.96328201  0.73185657  0.14770946    -0.05800
C1490       C  0.97271580  0.72728300  0.13082765    -0.16900
C1491       C  0.99257452  0.72720093  0.12990170     0.11400
C1492       C  0.00324987  0.73166002  0.14622455    -0.05700
C1493       C  0.99381893  0.73768492  0.16261372    -0.16900
C1494       C  0.97395280  0.73799423  0.16349016     0.11500
S1495       S  0.00341644  0.71885117  0.10840393    -0.31900
S1496       S  0.96235185  0.74596362  0.18486377    -0.31900
H1497       H  0.97890250  0.74910873  0.19555993     0.29500
H1498       H  0.01689411  0.73358266  0.10763053     0.29500
H1499       H  0.96462400  0.72248345  0.11867769     0.20100
H1500       H  0.00209373  0.74138320  0.17500604     0.20100
C1501       C  0.07379427  0.77601369  0.23267835    -0.05800
C1502       C  0.08549581  0.77905218  0.21689470    -0.16900
C1503       C  0.08685298  0.76565952  0.20237175     0.11400
C1504       C  0.07608736  0.74871048  0.20331326    -0.05700
C1505       C  0.06566981  0.74484216  0.21983521    -0.16900
C1506       C  0.06411921  0.75842473  0.23434356     0.11500
S1507       S  0.10221543  0.77133878  0.18274497    -0.31900
S1508       S  0.04781729  0.75337052  0.25331865    -0.31900
H1509       H  0.03878255  0.77114890  0.25242249     0.29500
H1510       H  0.10681289  0.75236920  0.17851151     0.29500
H1511       H  0.09327315  0.79229873  0.21556353     0.20100
H1512       H  0.05726036  0.73195195  0.22068526     0.20100
C1513       C  0.88796241  0.77244437  0.23336855    -0.05800
C1514       C  0.89873343  0.75583587  0.23580301    -0.16900
C1515       C  0.89989665  0.74205820  0.22142406     0.11400
C1516       C  0.88980433  0.74469047  0.20429096    -0.05700
C1517       C  0.87759738  0.76033989  0.20275111    -0.16900
C1518       C  0.87634926  0.77398462  0.21711097     0.11500
S1519       S  0.91610608  0.72265257  0.22498562    -0.31900
S1520       S  0.85993466  0.79327325  0.21362018    -0.31900
H1521       H  0.85623371  0.79604317  0.23299037     0.29500
H1522       H  0.92526592  0.72498219  0.20744896     0.29500
H1523       H  0.90762599  0.75435904  0.24822722     0.20100
H1524       H  0.86936041  0.76229428  0.18994297     0.20100
C1525       C  0.96223408  0.82732005  0.25062426    -0.05800
C1526       C  0.97143832  0.84494554  0.25256553    -0.16900
C1527       C  0.99131357  0.84618318  0.25297345     0.11400
C1528       C  0.00223793  0.82941217  0.25162556    -0.05700
C1529       C  0.99296858  0.81208327  0.24814033    -0.16900
C1530       C  0.97316844  0.81087729  0.24740420     0.11500
S1531       S  0.00174096  0.86910561  0.25748804    -0.31900
S1532       S  0.96204821  0.78815988  0.24269585    -0.31900
H1533       H  0.97869732  0.77828958  0.23794157     0.29500
H1534       H  0.01365646  0.86828569  0.24155332     0.29500
H1535       H  0.96314067  0.85764924  0.25498863     0.20100
H1536       H  0.00130697  0.79926697  0.24671051     0.20100
C1537       C  0.68706728  0.17295298  0.08463467    -0.05800
C1538       C  0.69490595  0.15500741  0.08084603    -0.16900
C1539       C  0.69551305  0.14070995  0.09468155     0.11400
C1540       C  0.68744279  0.14400477  0.11276624    -0.05700
C1541       C  0.68075200  0.16234800  0.11685455    -0.16900
C1542       C  0.68082575  0.17682854  0.10328649     0.11500
S1543       S  0.70608685  0.11848578  0.08790815    -0.31900
S1544       S  0.67275182  0.19985693  0.11092368    -0.31900
H1545       H  0.68713200  0.20984251  0.10127949     0.29500
H1546       H  0.71821408  0.11802202  0.10373178     0.29500
H1547       H  0.70016629  0.15183401  0.06679764     0.20100
H1548       H  0.67512515  0.16547955  0.13077096     0.20100
C1549       C  0.69237807  0.00005864  0.14924214    -0.05800
C1550       C  0.68909859  0.00974827  0.13220509    -0.16900
C1551       C  0.68852470  0.02963420  0.13162897     0.11400
C1552       C  0.69118517  0.04014618  0.14848631    -0.05700
C1553       C  0.69595075  0.03043441  0.16517740    -0.16900
C1554       C  0.69675621  0.01055604  0.16570949     0.11500
S1555       S  0.68200202  0.04054730  0.10954974    -0.31900
S1556       S  0.70328996  0.99878029  0.18749180    -0.31900
H1557       H  0.70596594  0.01524604  0.19846511     0.29500
H1558       H  0.69826957  0.05217140  0.10907254     0.29500
H1559       H  0.68571499  0.00179140  0.11951007     0.20100
H1560       H  0.69839353  0.03847462  0.17801671     0.20100
C1561       C  0.70424115  0.10972648  0.20703645    -0.05800
C1562       C  0.71808563  0.12413139  0.20735034    -0.16900
C1563       C  0.73242516  0.12449542  0.22115042     0.11400
C1564       C  0.73316172  0.11002230  0.23498216    -0.05700
C1565       C  0.71840082  0.09660197  0.23574038    -0.16900
C1566       C  0.70399163  0.09629288  0.22198434     0.11500
S1567       S  0.75003429  0.14322970  0.22065469    -0.31900
S1568       S  0.68732461  0.07689553  0.22285971    -0.31900
H1569       H  0.67141159  0.08887224  0.22209832     0.29500
H1570       H  0.74206727  0.15368606  0.20567840     0.29500
H1571       H  0.71818478  0.13463562  0.19615407     0.20100
H1572       H  0.71884647  0.08541058  0.24626955     0.20100
C1573       C  0.83036948  0.89373367  0.25818438    -0.05800
C1574       C  0.83293572  0.88369943  0.27517399    -0.16900
C1575       C  0.84714709  0.87004007  0.27715819     0.11400
C1576       C  0.85875838  0.86540092  0.26151987    -0.05700
C1577       C  0.85621894  0.87537796  0.24445779    -0.16900
C1578       C  0.84217874  0.88938690  0.24259837     0.11500
S1579       S  0.85064473  0.86028266  0.30050241    -0.31900
S1580       S  0.83967733  0.90063559  0.21983627    -0.31900
H1581       H  0.81974713  0.90142616  0.22048143     0.29500
H1582       H  0.87056903  0.86152856  0.29982203     0.29500
H1583       H  0.82436807  0.88718868  0.28741695     0.20100
H1584       H  0.86501367  0.87201103  0.23235065     0.20100
C1585       C  0.73970709  0.92628220  0.22926080    -0.05800
C1586       C  0.72313681  0.93688144  0.23238018    -0.16900
C1587       C  0.70886750  0.93807446  0.21852599     0.11400
C1588       C  0.71085205  0.92799044  0.20129438    -0.05700
C1589       C  0.72681053  0.91635853  0.19884933    -0.16900
C1590       C  0.74104075  0.91522902  0.21261186     0.11500
S1591       S  0.68962853  0.95426582  0.22294199    -0.31900
S1592       S  0.76070589  0.89958991  0.20790934    -0.31900
H1593       H  0.76390068  0.89486666  0.22699876     0.29500
H1594       H  0.69011044  0.96253942  0.20485779     0.29500
H1595       H  0.72198473  0.94555394  0.24499545     0.20100
H1596       H  0.72843046  0.90833421  0.18586255     0.20100
C1597       C  0.79291573  0.99905017  0.24439246    -0.05800
C1598       C  0.80936423  0.00909776  0.24939685    -0.16900
C1599       C  0.80968153  0.02897525  0.24951111     0.11400
C1600       C  0.79314067  0.03915409  0.24452294    -0.05700
C1601       C  0.77729319  0.02905176  0.23778057    -0.16900
C1602       C  0.77703155  0.00912218  0.23756507     0.11500
S1603       S  0.83067840  0.04030452  0.25869208    -0.31900
S1604       S  0.75618112  0.99674937  0.22908653    -0.31900
H1605       H  0.74728875  0.01266750  0.22097493     0.29500
H1606       H  0.83291419  0.05204291  0.24272665     0.29500
H1607       H  0.82162498  0.00144851  0.25461030     0.20100
H1608       H  0.76468497  0.03679355  0.23368475     0.20100
C1609       C  0.11044771  0.86315891  0.65521210    -0.05800
C1610       C  0.11090661  0.87716717  0.66938096    -0.16900
C1611       C  0.12531068  0.89098038  0.66991073     0.11400
C1612       C  0.13935527  0.89127610  0.65559775    -0.05700
C1613       C  0.13923230  0.87685228  0.64189216    -0.16900
C1614       C  0.12496503  0.86306545  0.64136686     0.11500
S1615       S  0.12530160  0.90730047  0.68954966    -0.31900
S1616       S  0.12542728  0.84683082  0.62163012    -0.31900
H1617       H  0.10624561  0.84964617  0.61688377     0.29500
H1618       H  0.14513993  0.90719227  0.69181717     0.29500
H1619       H  0.10007028  0.87725228  0.68025058     0.20100
H1620       H  0.14982411  0.87684490  0.63078088     0.20100
C1621       C  0.96283681  0.83090923  0.66022881    -0.05800
C1622       C  0.97235999  0.81409207  0.66495880    -0.16900
C1623       C  0.99212035  0.81322834  0.66521766     0.11400
C1624       C  0.00285665  0.82947333  0.66035346    -0.05700
C1625       C  0.99345006  0.84662588  0.65663765    -0.16900
C1626       C  0.97357363  0.84746097  0.65623425     0.11500
S1627       S  0.00276047  0.79093252  0.67191125    -0.31900
S1628       S  0.96294656  0.86947036  0.64875959    -0.31900
H1629       H  0.95032795  0.86083261  0.63592088     0.29500
H1630       H  0.01876464  0.79909451  0.68066376     0.29500
H1631       H  0.96431510  0.80137463  0.66830450     0.20100
H1632       H  0.00159418  0.85910814  0.65271848     0.20100
C1633       C  0.13632905  0.72553495  0.83321140    -0.05800
C1634       C  0.14224925  0.72537446  0.81422720    -0.16900
C1635       C  0.12917338  0.72639907  0.79935155     0.11400
C1636       C  0.10955358  0.72731257  0.80340281    -0.05700
C1637       C  0.10374478  0.72877168  0.82234457    -0.16900
C1638       C  0.11676831  0.72754339  0.83721903     0.11500
S1639       S  0.13849593  0.72652927  0.77560375    -0.31900
S1640       S  0.10713590  0.72650416  0.86081252    -0.31900
H1641       H  0.11676211  0.70965537  0.86552660     0.29500
H1642       H  0.12450144  0.73874828  0.76834540     0.29500
H1643       H  0.15720487  0.72416680  0.81090659     0.20100
H1644       H  0.08875927  0.72935934  0.82570106     0.20100
C1645       C  0.07570501  0.74851302  0.71366139    -0.05800
C1646       C  0.08443133  0.76615647  0.71698154    -0.16900
C1647       C  0.08492605  0.78030472  0.70309760     0.11400
C1648       C  0.07602511  0.77712505  0.68542809    -0.05700
C1649       C  0.06825559  0.75910956  0.68165019    -0.16900
C1650       C  0.06803770  0.74480103  0.69552531     0.11500
S1651       S  0.09687920  0.80222953  0.70900870    -0.31900
S1652       S  0.05563121  0.72310888  0.69008838    -0.31900
H1653       H  0.07114036  0.71152552  0.69482097     0.29500
H1654       H  0.10337596  0.80587102  0.69052849     0.29500
H1655       H  0.09058301  0.76912708  0.73073581     0.20100
H1656       H  0.06127087  0.75651807  0.66822631     0.20100
C1657       C  0.89440183  0.74693828  0.71204590    -0.05800
C1658       C  0.88201181  0.76227363  0.71469120    -0.16900
C1659       C  0.88037675  0.77675082  0.70124737     0.11400
C1660       C  0.89155796  0.77619860  0.68466302    -0.05700
C1661       C  0.90304645  0.76024175  0.68137850    -0.16900
C1662       C  0.90485241  0.74580801  0.69500528     0.11500
S1663       S  0.86391948  0.79565582  0.70627543    -0.31900
S1664       S  0.92220375  0.72757843  0.69068922    -0.31900
H1665       H  0.92942985  0.72748272  0.70924952     0.29500
H1666       H  0.85925444  0.79919796  0.68723706     0.29500
H1667       H  0.87376315  0.76319646  0.72760090     0.20100
H1668       H  0.91186816  0.75975610  0.66883332     0.20100
C1669       C  0.96435202  0.71519138  0.76975756    -0.05800
C1670       C  0.97349893  0.73257214  0.77338789    -0.16900
C1671       C  0.99335365  0.73396673  0.77307338     0.11400
C1672       C  0.00422253  0.71761354  0.76910820    -0.05700
C1673       C  0.99500862  0.70012429  0.76657642    -0.16900
C1674       C  0.97535294  0.69864061  0.76732540     0.11500
S1675       S  0.00379053  0.75708431  0.77661861    -0.31900
S1676       S  0.96532818  0.67506586  0.76579438    -0.31900
H1677       H  0.95020444  0.67865247  0.77827377     0.29500
H1678       H  0.01763033  0.75503992  0.76244113     0.29500
H1679       H  0.96515649  0.74529858  0.77550902     0.20100
H1680       H  0.00324284  0.68735567  0.76426179     0.20100
C1681       C  0.85840361  0.17384054  0.65355548    -0.05800
C1682       C  0.85503437  0.16304603  0.66993061    -0.16900
C1683       C  0.84027217  0.14968198  0.67071476     0.11400
C1684       C  0.82865679  0.14666863  0.65463940    -0.05700
C1685       C  0.83226452  0.15725738  0.63817482    -0.16900
C1686       C  0.84713465  0.17041980  0.63730489     0.11500
S1687       S  0.83651594  0.13770242  0.69293279    -0.31900
S1688       S  0.85164949  0.18134900  0.61463369    -0.31900
H1689       H  0.87151294  0.17977527  0.61591484     0.29500
H1690       H  0.81662880  0.13927382  0.69225478     0.29500
H1691       H  0.86358898  0.16544856  0.68245568     0.20100
H1692       H  0.82388785  0.15472984  0.62554892     0.20100
C1693       C  0.83144374  0.89782785  0.66482134    -0.05800
C1694       C  0.82589978  0.87959208  0.65881561    -0.16900
C1695       C  0.83867914  0.86441946  0.65830041     0.11400
C1696       C  0.85785736  0.86755444  0.66340262    -0.05700
C1697       C  0.86304943  0.88533609  0.67088546    -0.16900
C1698       C  0.85004589  0.90030800  0.67202433     0.11500
S1699       S  0.83001049  0.84133653  0.65095339    -0.31900
S1700       S  0.85830142  0.92208015  0.68263182    -0.31900
H1701       H  0.84191758  0.92439959  0.69375938     0.29500
H1702       H  0.81053716  0.84559366  0.65159341     0.29500
H1703       H  0.81155552  0.87727940  0.65384300     0.20100
H1704       H  0.87750731  0.88779884  0.67551573     0.20100
C1705       C  0.79252287  0.00334824  0.66674166    -0.05800
C1706       C  0.80936687  0.01375555  0.66451350    -0.16900
C1707       C  0.80927945  0.03363538  0.66448456     0.11400
C1708       C  0.79193863  0.04342789  0.66674327    -0.05700
C1709       C  0.77538296  0.03297060  0.67058522    -0.16900
C1710       C  0.77548599  0.01306678  0.67074735     0.11500
S1711       S  0.83127488  0.04548894  0.65907926    -0.31900
S1712       S  0.75377736  0.00029225  0.67592557    -0.31900
H1713       H  0.74215872  0.01626628  0.67866849     0.29500
H1714       H  0.83080001  0.05665765  0.67558077     0.29500
H1715       H  0.82250512  0.00638873  0.66152037     0.20100
H1716       H  0.76216031  0.04045660  0.67272215     0.20100
C1717       C  0.68500086  0.14380627  0.80274792    -0.05800
C1718       C  0.69368046  0.13985103  0.82023234    -0.16900
C1719       C  0.69508539  0.15361886  0.83449776     0.11400
C1720       C  0.68696828  0.17179377  0.83170620    -0.05700
C1721       C  0.67927856  0.17606013  0.81385206    -0.16900
C1722       C  0.67842671  0.16250988  0.79932739     0.11500
S1723       S  0.70745744  0.14691807  0.85577789    -0.31900
S1724       S  0.66873998  0.16965087  0.77671463    -0.31900
H1725       H  0.66944481  0.18938309  0.77983627     0.29500
H1726       H  0.71812294  0.16384674  0.85656373     0.29500
H1727       H  0.69931379  0.12580851  0.82295442     0.20100
H1728       H  0.67331650  0.18998973  0.81136542     0.20100
C1729       C  0.70889060  0.11005683  0.71247567    -0.05800
C1730       C  0.72302899  0.12408807  0.71350174    -0.16900
C1731       C  0.73651061  0.12625031  0.69913682     0.11400
C1732       C  0.73615358  0.11396826  0.68331057    -0.05700
C1733       C  0.72132122  0.10067251  0.68170727    -0.16900
C1734       C  0.70797928  0.09829964  0.69626301     0.11500
S1735       S  0.75402268  0.14475316  0.70202923    -0.31900
S1736       S  0.69174932  0.07854152  0.69434694    -0.31900
H1737       H  0.69427899  0.07237879  0.71311736     0.29500
H1738       H  0.75645893  0.14808956  0.68254709     0.29500
H1739       H  0.72381926  0.13323546  0.72581908     0.20100
H1740       H  0.72113058  0.09087867  0.66987352     0.20100
C1741       C  0.71189834  0.92570149  0.71036043    -0.05800
C1742       C  0.72842064  0.91487382  0.71313943    -0.16900
C1743       C  0.74346403  0.91529741  0.70019147     0.11400
C1744       C  0.74236341  0.92711994  0.68405397    -0.05700
C1745       C  0.72536070  0.93681491  0.68047422    -0.16900
C1746       C  0.71013765  0.93612644  0.69327924     0.11500
S1747       S  0.76380289  0.90066654  0.70529510    -0.31900
S1748       S  0.68975828  0.95042753  0.68782063    -0.31900
H1749       H  0.67696402  0.93522305  0.69017336     0.29500
H1750       H  0.76830813  0.89706510  0.68623552     0.29500
H1751       H  0.72994852  0.90646230  0.72589545     0.20100
H1752       H  0.72427971  0.94587758  0.66812021     0.20100
C1753       C  0.69470951  0.99808240  0.76320148    -0.05800
C1754       C  0.69414608  0.00717884  0.78086238    -0.16900
C1755       C  0.69395917  0.02705300  0.78219960     0.11400
C1756       C  0.69385374  0.03811772  0.76546675    -0.05700
C1757       C  0.69637107  0.02893144  0.74798805    -0.16900
C1758       C  0.69716511  0.00915003  0.74671984     0.11500
S1759       S  0.69195247  0.03720384  0.80546885    -0.31900
S1760       S  0.70102185  0.99890634  0.72363259    -0.31900
H1761       H  0.71011466  0.98243750  0.73030000     0.29500
H1762       H  0.70759156  0.04940757  0.80289146     0.29500
H1763       H  0.69264386  0.99879154  0.79364239     0.20100
H1764       H  0.69713336  0.03721068  0.73507021     0.20100
C1765       C  0.85791022  0.72097604  0.11235611    -0.05800
C1766       C  0.84768983  0.70425846  0.10854808    -0.16900
C1767       C  0.83443154  0.70332231  0.09390669     0.11400
C1768       C  0.83058506  0.71968824  0.08294784    -0.05700
C1769       C  0.84050781  0.73656741  0.08689362    -0.16900
C1770       C  0.85392264  0.73745797  0.10157693     0.11500
S1771       S  0.82412355  0.68032403  0.08906863    -0.31900
S1772       S  0.86485009  0.76015140  0.10623271    -0.31900
H1773       H  0.86463793  0.75802927  0.12603426     0.29500
H1774       H  0.82600837  0.68184528  0.06931413     0.29500
H1775       H  0.85073260  0.69141170  0.11643505     0.20100
H1776       H  0.83754704  0.74924332  0.07871281     0.20100
C1777       C  0.83066357  0.72201315  0.82926346    -0.05800
C1778       C  0.84637009  0.73431131  0.83092069    -0.16900
C1779       C  0.85980739  0.73605152  0.81640484     0.11400
C1780       C  0.85811972  0.72461468  0.80004086    -0.05700
C1781       C  0.84179028  0.71338261  0.79781676    -0.16900
C1782       C  0.82803182  0.71198166  0.81202878     0.11500
S1783       S  0.87839937  0.75341653  0.81949676    -0.31900
S1784       S  0.80768329  0.69680526  0.80773332    -0.31900
H1785       H  0.81391858  0.68859651  0.79070368     0.29500
H1786       H  0.87865712  0.75893951  0.80035096     0.29500
H1787       H  0.84825672  0.74268439  0.84365286     0.20100
H1788       H  0.84013368  0.70497350  0.78510527     0.20100
C1789       C  0.79793506  0.72908577  0.93706251    -0.05800
C1790       C  0.78104645  0.73432650  0.94621213    -0.16900
C1791       C  0.77985056  0.73511811  0.96599782     0.11400
C1792       C  0.79576456  0.73010175  0.97701078    -0.05700
C1793       C  0.81310084  0.72652773  0.96793264    -0.16900
C1794       C  0.81441316  0.72617540  0.94812471     0.11500
S1795       S  0.75795329  0.74250881  0.97703331    -0.31900
S1796       S  0.83696602  0.72000724  0.93798059    -0.31900
H1797       H  0.83755511  0.73622518  0.92634761     0.29500
H1798       H  0.74811730  0.74689795  0.96027163     0.29500
H1799       H  0.76852473  0.73716036  0.93780892     0.20100
H1800       H  0.82546381  0.72289390  0.97629151     0.20100
C1801       C  0.68714210  0.86710994  0.08218267    -0.05800
C1802       C  0.68369899  0.86190416  0.10107913    -0.16900
C1803       C  0.68354229  0.87537403  0.11565321     0.11400
C1804       C  0.68636306  0.89482311  0.11138084    -0.05700
C1805       C  0.69055680  0.89996350  0.09262791    -0.16900
C1806       C  0.69077344  0.88648400  0.07804000     0.11500
S1807       S  0.68020241  0.86662950  0.13939913    -0.31900
S1808       S  0.69435358  0.89531911  0.05437898    -0.31900
H1809       H  0.67832251  0.88594244  0.04696577     0.29500
H1810       H  0.69362935  0.87904232  0.14750596     0.29500
H1811       H  0.68118530  0.84712286  0.10460728     0.20100
H1812       H  0.69271233  0.91479278  0.08906896     0.20100
C1813       C  0.71195050  0.77445476  0.05258451    -0.05800
C1814       C  0.72848891  0.77730855  0.06331354    -0.16900
C1815       C  0.74302141  0.76372770  0.06377938     0.11400
C1816       C  0.74135766  0.74706526  0.05268261    -0.05700
C1817       C  0.72409741  0.74341354  0.04338475    -0.16900
C1818       C  0.70933527  0.75676473  0.04343196     0.11500
S1819       S  0.76356921  0.76794646  0.07855778    -0.31900
S1820       S  0.68845321  0.75124483  0.02984360    -0.31900
H1821       H  0.67600665  0.75542774  0.04481343     0.29500
H1822       H  0.75774243  0.78549916  0.08604522     0.29500
H1823       H  0.73030635  0.79060923  0.07080891     0.20100
H1824       H  0.72247034  0.73056956  0.03508073     0.20100
C1825       C  0.68767109  0.86720749  0.83157145    -0.05800
C1826       C  0.69120030  0.88635242  0.83601162    -0.16900
C1827       C  0.69056098  0.90054153  0.82212665     0.11400
C1828       C  0.68686650  0.89557696  0.80305186    -0.05700
C1829       C  0.68408903  0.87635296  0.79850747    -0.16900
C1830       C  0.68471906  0.86217710  0.81238203     0.11500
S1831       S  0.69295168  0.92475888  0.83008919    -0.31900
S1832       S  0.68205734  0.83797016  0.80445819    -0.31900
H1833       H  0.69613696  0.83078668  0.81662194     0.29500
H1834       H  0.67686312  0.93118386  0.82020969     0.29500
H1835       H  0.69338798  0.89050815  0.85061773     0.20100
H1836       H  0.68150498  0.87226834  0.78394223     0.20100
C1837       C  0.71783111  0.78135954  0.86830747    -0.05800
C1838       C  0.73348602  0.78316484  0.88044443    -0.16900
C1839       C  0.74742647  0.76925121  0.88157383     0.11400
C1840       C  0.74631430  0.75294278  0.86993076    -0.05700
C1841       C  0.73063384  0.75090971  0.85772798    -0.16900
C1842       C  0.71649860  0.76504878  0.85664393     0.11500
S1843       S  0.76571150  0.77283154  0.89912274    -0.31900
S1844       S  0.69781643  0.76196219  0.83951560    -0.31900
H1845       H  0.69648672  0.78134570  0.83484715     0.29500
H1846       H  0.76571988  0.75382847  0.90525612     0.29500
H1847       H  0.73460760  0.79534665  0.88977376     0.20100
H1848       H  0.72968729  0.73857274  0.84860751     0.20100
C1849       C  0.69192361  0.82656109  0.93791882    -0.05800
C1850       C  0.69323873  0.84375628  0.94791548    -0.16900
C1851       C  0.69278151  0.84410344  0.96773642     0.11400
C1852       C  0.69116141  0.82686246  0.97788568    -0.05700
C1853       C  0.69129093  0.80963580  0.96789992    -0.16900
C1854       C  0.69209106  0.80927296  0.94814907     0.11500
S1855       S  0.69260018  0.86703221  0.97905897    -0.31900
S1856       S  0.69355892  0.78628930  0.93694121    -0.31900
H1857       H  0.70519677  0.79249432  0.92196393     0.29500
H1858       H  0.67730922  0.86270124  0.99112068     0.29500
H1859       H  0.69332103  0.85710415  0.94026802     0.20100
H1860       H  0.69066078  0.79630212  0.97556431     0.20100
C1861       C  0.13922011  0.89159773  0.26033841    -0.05800
C1862       C  0.13585953  0.88122725  0.27699197    -0.16900
C1863       C  0.12089638  0.86820500  0.27832949     0.11400
C1864       C  0.10919557  0.86473854  0.26240897    -0.05700
C1865       C  0.11268473  0.87487234  0.24563133    -0.16900
C1866       C  0.12760285  0.88807676  0.24436489     0.11500
S1867       S  0.11665938  0.85770685  0.30125048    -0.31900
S1868       S  0.13141277  0.89940860  0.22181579    -0.31900
H1869       H  0.15133455  0.89910917  0.22306308     0.29500
H1870       H  0.09682611  0.85985569  0.30050381     0.29500
H1871       H  0.14437453  0.88398955  0.28947690     0.20100
H1872       H  0.10391682  0.87226306  0.23329439     0.20100
C1873       C  0.17560317  0.99738875  0.25285901    -0.05800
C1874       C  0.15745438  0.00550925  0.25405701    -0.16900
C1875       C  0.15513404  0.02519257  0.25603012     0.11400
C1876       C  0.17129570  0.03711203  0.25667029    -0.05700
C1877       C  0.18933357  0.02900092  0.25469329    -0.16900
C1878       C  0.19163049  0.00947910  0.25226064     0.11500
S1879       S  0.13137319  0.03395014  0.25927680    -0.31900
S1880       S  0.21537426  0.00100719  0.24800942    -0.31900
H1881       H  0.20972391  0.98610769  0.23595253     0.29500
H1882       H  0.13629388  0.04688017  0.27366377     0.29500
H1883       H  0.14504451  0.99640332  0.25469672     0.20100
H1884       H  0.20183030  0.03797202  0.25481963     0.20100
C1885       C  0.22122197  0.10318587  0.22752078    -0.05800
C1886       C  0.23221888  0.11961059  0.22429037    -0.16900
C1887       C  0.24598780  0.12011660  0.20974466     0.11400
C1888       C  0.24876800  0.10387359  0.19823465    -0.05700
C1889       C  0.23857011  0.08727609  0.20239892    -0.16900
C1890       C  0.22533397  0.08662115  0.21701580     0.11500
S1891       S  0.25860649  0.14207727  0.20591876    -0.31900
S1892       S  0.21439926  0.06393403  0.22182467    -0.31900
H1893       H  0.21357433  0.06685954  0.24149003     0.29500
H1894       H  0.25961990  0.14042117  0.18612430     0.29500
H1895       H  0.22939021  0.13235733  0.23238674     0.20100
H1896       H  0.24097494  0.07453454  0.19412401     0.20100
C1897       C  0.28521369  0.89026078  0.11097010    -0.05800
C1898       C  0.30144878  0.87891787  0.10903468    -0.16900
C1899       C  0.30305954  0.86559710  0.09449011     0.11400
C1900       C  0.28789062  0.86305660  0.08161310    -0.05700
C1901       C  0.27150422  0.87414007  0.08368158    -0.16900
C1902       C  0.26986705  0.88742954  0.09835475     0.11500
S1903       S  0.32542083  0.85336254  0.09247109    -0.31900
S1904       S  0.24756543  0.89963156  0.10065021    -0.31900
H1905       H  0.24740251  0.89896687  0.12055575     0.29500
H1906       H  0.32635821  0.85483763  0.07266169     0.29500
H1907       H  0.31344385  0.88104128  0.11841144     0.20100
H1908       H  0.25969963  0.87213650  0.07404512     0.20100
C1909       C  0.25860063  0.92393088  0.20261255    -0.05800
C1910       C  0.24200945  0.91301376  0.20046958    -0.16900
C1911       C  0.22771570  0.91288433  0.21427632     0.11400
C1912       C  0.22986473  0.92397854  0.23081246    -0.05700
C1913       C  0.24707317  0.93369039  0.23374244    -0.16900
C1914       C  0.26143854  0.93374078  0.21991416     0.11500
S1915       S  0.20665375  0.89862965  0.21045638    -0.31900
S1916       S  0.28204599  0.94821562  0.22438163    -0.31900
H1917       H  0.29478619  0.93329398  0.22082351     0.29500
H1918       H  0.21155815  0.89161463  0.19248524     0.29500
H1919       H  0.23989176  0.90511299  0.18749308     0.20100
H1920       H  0.24890739  0.94222521  0.24637727     0.20100
C1921       C  0.27117136  0.03512763  0.14696521    -0.05800
C1922       C  0.26990390  0.02505072  0.12987122    -0.16900
C1923       C  0.26971545  0.00512962  0.12966036     0.11400
C1924       C  0.27133173  0.99503780  0.14691366    -0.05700
C1925       C  0.27073152  0.00521529  0.16399529    -0.16900
C1926       C  0.27044085  0.02507277  0.16423597     0.11500
S1927       S  0.26892548  0.99361340  0.10694468    -0.31900
S1928       S  0.26910917  0.03734238  0.18670031    -0.31900
H1929       H  0.26753559  0.02113239  0.19824886     0.29500
H1930       H  0.25372222  0.98166782  0.11206048     0.29500
H1931       H  0.26995332  0.03270243  0.11655895     0.20100
H1932       H  0.27124238  0.99755161  0.17727511     0.20100
C1933       C  0.85073693  0.17460258  0.25826216    -0.05800
C1934       C  0.84903228  0.16308894  0.24211351    -0.16900
C1935       C  0.83507885  0.14884923  0.24094701     0.11400
C1936       C  0.82269655  0.14574723  0.25643518    -0.05700
C1937       C  0.82402063  0.15780141  0.27220300    -0.16900
C1938       C  0.83801459  0.17178295  0.27348001     0.11500
S1939       S  0.83367236  0.13547772  0.21925438    -0.31900
S1940       S  0.83999883  0.18406846  0.29580361    -0.31900
H1941       H  0.85979913  0.18194667  0.29707049     0.29500
H1942       H  0.81372754  0.13455104  0.21913412     0.29500
H1943       H  0.85860459  0.16522525  0.23030327     0.20100
H1944       H  0.81485303  0.15553630  0.28430893     0.20100
C1945       C  0.10258404  0.16935634  0.24574610    -0.05800
C1946       C  0.09726892  0.15059322  0.24140888    -0.16900
C1947       C  0.11085034  0.13619932  0.23962478     0.11400
C1948       C  0.13018232  0.14037313  0.24330912    -0.05700
C1949       C  0.13557932  0.15950128  0.24537077    -0.16900
C1950       C  0.12209428  0.17403421  0.24628413     0.11500
S1951       S  0.10245717  0.11295594  0.23290857    -0.31900
S1952       S  0.13016994  0.19836909  0.24826512    -0.31900
H1953       H  0.14950795  0.19486950  0.24487214     0.29500
H1954       H  0.11781530  0.10942992  0.22069410     0.29500
H1955       H  0.08239093  0.14694127  0.23998688     0.20100
H1956       H  0.15040955  0.16305530  0.24724964     0.20100
C1957       C  0.99799435  0.20883480  0.25549963    -0.05800
C1958       C  0.98898013  0.22603990  0.25981575    -0.16900
C1959       C  0.96930126  0.22765302  0.25978774     0.11400
C1960       C  0.95789799  0.21152306  0.25599754    -0.05700
C1961       C  0.96681134  0.19456639  0.25046957    -0.16900
C1962       C  0.98668486  0.19302902  0.25020595     0.11500
S1963       S  0.95976125  0.25097136  0.26405967    -0.31900
S1964       S  0.99654607  0.17028889  0.24408415    -0.31900
H1965       H  0.00815646  0.16938221  0.26026411     0.29500
H1966       H  0.94622806  0.24928699  0.24951093     0.29500
H1967       H  0.99736214  0.23852820  0.26320139     0.20100
H1968       H  0.95828573  0.18213755  0.24726445     0.20100
C1969       C  0.85296711  0.32208379  0.11593176    -0.05800
C1970       C  0.84118999  0.33800740  0.11404820    -0.16900
C1971       C  0.82781146  0.33931023  0.09951140     0.11400
C1972       C  0.82538859  0.32403687  0.08667120    -0.05700
C1973       C  0.83692658  0.30791517  0.08875097    -0.16900
C1974       C  0.85048532  0.30669314  0.10327457     0.11500
S1975       S  0.81568657  0.36165023  0.09715529    -0.31900
S1976       S  0.86363049  0.28487950  0.10525695    -0.31900
H1977       H  0.86317432  0.28448038  0.12516633     0.29500
H1978       H  0.81944149  0.36295599  0.07763552     0.29500
H1979       H  0.84310133  0.35008947  0.12338007     0.20100
H1980       H  0.83518488  0.29602417  0.07916256     0.20100
C1981       C  0.88640349  0.26452368  0.23372488    -0.05800
C1982       C  0.87500143  0.26244704  0.21756065    -0.16900
C1983       C  0.87404226  0.27662804  0.20371058     0.11400
C1984       C  0.88509421  0.29333741  0.20562267    -0.05700
C1985       C  0.89546396  0.29606176  0.22240953    -0.16900
C1986       C  0.89642499  0.28181261  0.23634057     0.11500
S1987       S  0.85859365  0.27235697  0.18378756    -0.31900
S1988       S  0.91210191  0.28598441  0.25607865    -0.31900
H1989       H  0.91915246  0.26740421  0.25693646     0.29500
H1990       H  0.85392072  0.29158456  0.18102829     0.29500
H1991       H  0.86700631  0.24942647  0.21549568     0.20100
H1992       H  0.90408765  0.30873281  0.22404048     0.20100
C1993       C  0.07033993  0.29033745  0.20503420    -0.05800
C1994       C  0.05700819  0.29074811  0.21979054    -0.16900
C1995       C  0.05615783  0.27610786  0.23327242     0.11400
C1996       C  0.06929505  0.26097888  0.23237293    -0.05700
C1997       C  0.08337315  0.26129848  0.21835643    -0.16900
C1998       C  0.08417300  0.27586014  0.20489058     0.11500
S1999       S  0.03674342  0.27648016  0.24987084    -0.31900
S2000       S  0.10306172  0.27506981  0.18771513    -0.31900
H2001       H  0.10419647  0.29486725  0.18514341     0.29500
H2002       H  0.03223980  0.25708448  0.24799245     0.29500
H2003       H  0.04619091  0.30165553  0.21990412     0.20100
H2004       H  0.09360760  0.24985955  0.21763837     0.20100
C2005       C  0.99820757  0.31173110  0.15145587    -0.05800
C2006       C  0.98878716  0.30782993  0.16852335    -0.16900
C2007       C  0.96895442  0.30785851  0.16963395     0.11400
C2008       C  0.95819381  0.31182720  0.15325096    -0.05700
C2009       C  0.96753288  0.31412961  0.13585230    -0.16900
C2010       C  0.98738887  0.31448384  0.13482479     0.11500
S2011       S  0.95759017  0.30284139  0.19204257    -0.31900
S2012       S  0.99786222  0.32053773  0.11235941    -0.31900
H2013       H  0.01053050  0.33403768  0.11990256     0.29500
H2014       H  0.97423586  0.30022418  0.20270458     0.29500
H2015       H  0.99707220  0.30536396  0.18119269     0.20100
H2016       H  0.95936353  0.31724826  0.12323655     0.20100
C2017       C  0.28186142  0.14223694  0.80336319    -0.05800
C2018       C  0.29713380  0.15495049  0.80518413    -0.16900
C2019       C  0.29801153  0.16812365  0.81992515     0.11400
C2020       C  0.28274239  0.16961489  0.83283645    -0.05700
C2021       C  0.26737429  0.15696780  0.83106060    -0.16900
C2022       C  0.26671907  0.14340268  0.81648651     0.11500
S2023       S  0.31984763  0.18135623  0.82232443    -0.31900
S2024       S  0.24592589  0.12851537  0.81513193    -0.31900
H2025       H  0.24443307  0.12967458  0.79530500     0.29500
H2026       H  0.32094924  0.17904894  0.84208872     0.29500
H2027       H  0.30909511  0.15397521  0.79560631     0.20100
H2028       H  0.25559993  0.15789082  0.84086281     0.20100
C2029       C  0.26843368  0.13946586  0.10657983    -0.05800
C2030       C  0.26892038  0.15856575  0.11230180    -0.16900
C2031       C  0.26869811  0.17336671  0.09911392     0.11400
C2032       C  0.26840390  0.16914950  0.07955790    -0.05700
C2033       C  0.26642276  0.15015272  0.07383061    -0.16900
C2034       C  0.26664443  0.13530072  0.08703434     0.11500
S2035       S  0.26884119  0.19730382  0.10821987    -0.31900
S2036       S  0.26652876  0.11146092  0.07776414    -0.31900
H2037       H  0.28314987  0.10615783  0.08744415     0.29500
H2038       H  0.25727257  0.20473470  0.09377839     0.24700
H2039       H  0.26982191  0.16203689  0.12721862     0.20100
H2040       H  0.26612167  0.14672056  0.05888201     0.20100
C2041       C  0.27025162  0.21419076  0.97709733    -0.05800
C2042       C  0.26650628  0.19705381  0.96758699    -0.16900
C2043       C  0.26738148  0.19588274  0.94781971     0.11400
C2044       C  0.27179945  0.21230233  0.93713121    -0.05700
C2045       C  0.27400430  0.22971808  0.94661793    -0.16900
C2046       C  0.27298094  0.23091112  0.96631429     0.11500
S2047       S  0.26437885  0.17272766  0.93740957    -0.31900
S2048       S  0.27508193  0.25423280  0.97667580    -0.31900
H2049       H  0.26152064  0.25068653  0.99086267     0.29500
H2050       H  0.28144427  0.17368563  0.92711779     0.29500
H2051       H  0.26418020  0.18413986  0.97562299     0.20100
H2052       H  0.27675936  0.24257996  0.93862058     0.20100
C2053       C  0.10689561  0.31831322  0.80212034    -0.05800
C2054       C  0.10169360  0.30969336  0.81931652    -0.16900
C2055       C  0.11406436  0.30919922  0.83485907     0.11400
C2056       C  0.13245385  0.31722634  0.83334570    -0.05700
C2057       C  0.13792720  0.32512779  0.81588003    -0.16900
C2058       C  0.12560942  0.32550660  0.80030702     0.11500
S2059       S  0.10490148  0.29918611  0.85645999    -0.31900
S2060       S  0.13497324  0.33497889  0.77851436    -0.31900
H2061       H  0.12691879  0.32062523  0.76717159     0.29500
H2062       H  0.10979852  0.31515158  0.86743943     0.29500
H2063       H  0.08748492  0.30404025  0.82104268     0.20100
H2064       H  0.15206332  0.33099282  0.81422918     0.20100
C2065       C  0.22211119  0.28902828  0.86487062    -0.05800
C2066       C  0.23931633  0.29243556  0.87434962    -0.16900
C2067       C  0.25406625  0.27905899  0.87410490     0.11400
C2068       C  0.25167747  0.26172034  0.86422016    -0.05700
C2069       C  0.23509252  0.25906295  0.85349933    -0.16900
C2070       C  0.22041631  0.27252169  0.85355240     0.11500
S2071       S  0.27448785  0.28388008  0.88863326    -0.31900
S2072       S  0.19958874  0.26835438  0.83915412    -0.31900
H2073       H  0.20456578  0.25013336  0.83271363     0.29500
H2074       H  0.28736509  0.28124013  0.87367269     0.29500
H2075       H  0.24085464  0.30504261  0.88302544     0.20100
H2076       H  0.23336372  0.24600494  0.84557658     0.20100
C2077       C  0.13261485  0.31515400  0.08651951    -0.05800
C2078       C  0.11789755  0.30159803  0.08598761    -0.16900
C2079       C  0.10397334  0.30075403  0.10016602     0.11400
C2080       C  0.10427578  0.31413190  0.11512476    -0.05700
C2081       C  0.11942505  0.32708549  0.11606729    -0.16900
C2082       C  0.13333723  0.32793309  0.10203729     0.11500
S2083       S  0.08664980  0.28194881  0.09854848    -0.31900
S2084       S  0.15087757  0.34645642  0.10466278    -0.31900
H2085       H  0.14789453  0.35397717  0.08650300     0.29500
H2086       H  0.08678240  0.27801185  0.11807776     0.29500
H2087       H  0.11726726  0.29143308  0.07448907     0.20100
H2088       H  0.12001120  0.33741409  0.12742615     0.20100
C2089       C  0.22204388  0.28888695  0.05702730    -0.05800
C2090       C  0.23913625  0.29250091  0.04744488    -0.16900
C2091       C  0.25330868  0.27857983  0.04614088     0.11400
C2092       C  0.25062123  0.26072319  0.05495935    -0.05700
C2093       C  0.23447055  0.25798375  0.06628798    -0.16900
C2094       C  0.22041635  0.27195300  0.06772435     0.11500
S2095       S  0.27330243  0.28366174  0.03109662    -0.31900
S2096       S  0.20056085  0.26715137  0.08311310    -0.31900
H2097       H  0.19696712  0.28634772  0.08733745     0.29500
H2098       H  0.27210868  0.26647995  0.02102560     0.29500
H2099       H  0.24072383  0.30548931  0.03935349     0.20100
H2100       H  0.23247443  0.24457994  0.07359344     0.20100
C2101       C  0.16721847  0.30466620  0.94003017    -0.05800
C2102       C  0.18409492  0.30037437  0.94972866    -0.16900
C2103       C  0.18476748  0.29965688  0.96950859     0.11400
C2104       C  0.16835004  0.30387724  0.98011527    -0.05700
C2105       C  0.15111205  0.30654942  0.97054234    -0.16900
C2106       C  0.15031904  0.30679022  0.95067674     0.11500
S2107       S  0.20711827  0.29366311  0.98041319    -0.31900
S2108       S  0.12775436  0.31190691  0.93995622    -0.31900
H2109       H  0.12826154  0.29575504  0.92824069     0.29500
H2110       H  0.19915967  0.28553054  0.99679180     0.29500
H2111       H  0.19707601  0.29812249  0.94184238     0.20100
H2112       H  0.13838753  0.30965615  0.97855075     0.20100
C2113       C  0.04968030  0.17587323  0.35927862    -0.05800
C2114       C  0.05731803  0.16418222  0.34510870    -0.16900
C2115       C  0.06217071  0.17137529  0.32728292     0.11400
C2116       C  0.05927653  0.19081345  0.32329490    -0.05700
C2117       C  0.05315110  0.20289095  0.33787974    -0.16900
C2118       C  0.04812453  0.19560915  0.35574455     0.11500
S2119       S  0.07222328  0.15557735  0.30976211    -0.31900
S2120       S  0.03832901  0.21192191  0.37271317    -0.31900
H2121       H  0.02318169  0.19993042  0.37786219     0.29500
H2122       H  0.07090902  0.13874094  0.32041760     0.29500
H2123       H  0.05917870  0.14918197  0.34794128     0.20100
H2124       H  0.05092749  0.21783072  0.33493840     0.20100
C2125       C  0.90478949  0.17552486  0.36155075    -0.05800
C2126       C  0.90763897  0.19523887  0.35994022    -0.16900
C2127       C  0.90498064  0.20468522  0.34257297     0.11400
C2128       C  0.89895473  0.19429914  0.32647964    -0.05700
C2129       C  0.89450171  0.17494552  0.32869981    -0.16900
C2130       C  0.89705476  0.16558316  0.34594523     0.11500
S2131       S  0.91117716  0.22948189  0.34154905    -0.31900
S2132       S  0.89012527  0.14088917  0.34702343    -0.31900
H2133       H  0.88469662  0.14133003  0.36618012     0.29500
H2134       H  0.92198817  0.22773396  0.32491585     0.29500
H2135       H  0.91333917  0.20308678  0.37185725     0.20100
H2136       H  0.88919651  0.16687036  0.31674189     0.20100
C2137       C  0.04156787  0.17804744  0.56040892    -0.05800
C2138       C  0.05925866  0.18661068  0.56383836    -0.16900
C2139       C  0.06348748  0.19484381  0.58147191     0.11400
C2140       C  0.04951299  0.19513709  0.59586052    -0.05700
C2141       C  0.03151861  0.18745126  0.59193101    -0.16900
C2142       C  0.02736591  0.17910766  0.57447643     0.11500
S2143       S  0.08742478  0.20301138  0.58523384    -0.31900
S2144       S  0.00357066  0.17015874  0.57106824    -0.31900
H2145       H  0.00274309  0.17437367  0.55161948     0.29500
H2146       H  0.08937070  0.19399088  0.60290260     0.29500
H2147       H  0.07028563  0.18573765  0.55319792     0.20100
H2148       H  0.02053774  0.18779367  0.60265806     0.20100
C2149       C  0.91945712  0.18224302  0.55921538    -0.05800
C2150       C  0.93497528  0.18530262  0.57130032    -0.16900
C2151       C  0.93313880  0.19573164  0.58802205     0.11400
C2152       C  0.91526922  0.20319311  0.59313357    -0.05700
C2153       C  0.89999182  0.20123530  0.58050850    -0.16900
C2154       C  0.90180607  0.19058640  0.56378653     0.11500
S2155       S  0.95408671  0.19860819  0.60248314    -0.31900
S2156       S  0.88063171  0.18639952  0.55011072    -0.31900
H2157       H  0.88447786  0.16711828  0.54660254     0.29500
H2158       H  0.94859710  0.21601761  0.61054836     0.29500
H2159       H  0.94865577  0.17924121  0.56782352     0.20100
H2160       H  0.88614820  0.20657197  0.58447402     0.20100
C2161       C  0.15459904  0.10081430  0.32313917    -0.05800
C2162       C  0.13703923  0.10923520  0.32725460    -0.16900
C2163       C  0.12834950  0.10696564  0.34492519     0.11400
C2164       C  0.13704848  0.09551558  0.35889223    -0.05700
C2165       C  0.15527792  0.08831006  0.35535904    -0.16900
C2166       C  0.16401984  0.09063084  0.33760902     0.11500
S2167       S  0.10609553  0.11900101  0.34869959    -0.31900
S2168       S  0.18618584  0.07859819  0.33374271    -0.31900
H2169       H  0.18115504  0.07132190  0.31588543     0.29500
H2170       H  0.10874285  0.12171588  0.36825340     0.29500
H2171       H  0.12979229  0.11736218  0.31642071     0.20100
H2172       H  0.16212323  0.07954210  0.36594265     0.20100
C2173       C  0.14511588  0.95755840  0.35806172    -0.05800
C2174       C  0.14640679  0.97172353  0.34415693    -0.16900
C2175       C  0.15676269  0.96897762  0.32755707     0.11400
C2176       C  0.16566907  0.95131963  0.32418605    -0.05700
C2177       C  0.16547054  0.93751196  0.33854688    -0.16900
C2178       C  0.15520543  0.94038475  0.35538904     0.11500
S2179       S  0.15797618  0.98865240  0.31117239    -0.31900
S2180       S  0.15425412  0.92101412  0.37202708    -0.31900
H2181       H  0.13493742  0.92327292  0.37641961     0.29500
H2182       H  0.17596800  0.98402792  0.30392851     0.29500
H2183       H  0.13921229  0.98515487  0.34622633     0.20100
H2184       H  0.17216203  0.92389555  0.33608774     0.20100
C2185       C  0.14378664  0.08354331  0.55717804    -0.05800
C2186       C  0.14954168  0.10212201  0.56176618    -0.16900
C2187       C  0.15721122  0.10641354  0.57965931     0.11400
C2188       C  0.15950293  0.09172306  0.59312323    -0.05700
C2189       C  0.15498323  0.07299870  0.58793123    -0.16900
C2190       C  0.14744669  0.06874944  0.57015685     0.11500
S2191       S  0.16212455  0.13097032  0.58500769    -0.31900
S2192       S  0.14266663  0.04408976  0.56495633    -0.31900
H2193       H  0.14570494  0.04565136  0.54533965     0.29500
H2194       H  0.15441548  0.13035837  0.60335496     0.29500
H2195       H  0.14676035  0.11359530  0.55189486     0.20100
H2196       H  0.15708800  0.06153973  0.59795436     0.20100
C2197       C  0.14852508  0.95583163  0.55271421    -0.05800
C2198       C  0.15329300  0.97074355  0.56501960    -0.16900
C2199       C  0.16345988  0.96751316  0.58170923     0.11400
C2200       C  0.16878594  0.94881131  0.58670164    -0.05700
C2201       C  0.16544233  0.93406482  0.57370192    -0.16900
C2202       C  0.15522273  0.93733030  0.55687239     0.11500
S2203       S  0.16874714  0.98787416  0.59635257    -0.31900
S2204       S  0.14953748  0.91701444  0.54241328    -0.31900
H2205       H  0.13058362  0.92229697  0.53917785     0.29500
H2206       H  0.18520799  0.98019654  0.60458082     0.29500
H2207       H  0.14866882  0.98506496  0.56181205     0.20100
H2208       H  0.16934415  0.91965619  0.57740804     0.20100
C2209       C  0.80297021  0.08337298  0.32328829    -0.05800
C2210       C  0.80205636  0.09729584  0.33753505    -0.16900
C2211       C  0.81188943  0.09513304  0.35475058     0.11400
C2212       C  0.82253898  0.07846036  0.35811984    -0.05700
C2213       C  0.82271227  0.06423702  0.34421314    -0.16900
C2214       C  0.81294160  0.06634488  0.32710688     0.11500
S2215       S  0.81166972  0.11482611  0.37102909    -0.31900
S2216       S  0.81366169  0.04656373  0.31087718    -0.31900
H2217       H  0.79516988  0.04925241  0.30388224     0.29500
H2218       H  0.83095752  0.11340312  0.37593794     0.29500
H2219       H  0.79468211  0.11049365  0.33477527     0.20100
H2220       H  0.83052388  0.05123129  0.34672318     0.20100
C2221       C  0.82228115  0.95752498  0.35766034    -0.05800
C2222       C  0.80927176  0.94248611  0.35544182    -0.16900
C2223       C  0.80019380  0.93914927  0.33794800     0.11400
C2224       C  0.80412220  0.95114514  0.32227910    -0.05700
C2225       C  0.81603538  0.96692864  0.32513678    -0.16900
C2226       C  0.82476749  0.97041804  0.34251082     0.11500
S2227       S  0.78468610  0.91885694  0.33633533    -0.31900
S2228       S  0.83867127  0.99192219  0.34442292    -0.31900
H2229       H  0.83365253  0.99558687  0.36334731     0.29500
H2230       H  0.79401691  0.91123482  0.32047422     0.29500
H2231       H  0.80693706  0.93268776  0.36704347     0.20100
H2232       H  0.81872759  0.97674548  0.31361735     0.20100
C2233       C  0.79949057  0.08746828  0.59086823    -0.05800
C2234       C  0.79950258  0.10130082  0.57653409    -0.16900
C2235       C  0.80949869  0.09844209  0.55955762     0.11400
C2236       C  0.81944987  0.08123464  0.55666527    -0.05700
C2237       C  0.81823462  0.06698197  0.57050027    -0.16900
C2238       C  0.80819794  0.06974495  0.58728829     0.11500
S2239       S  0.81045748  0.11792822  0.54306682    -0.31900
S2240       S  0.80720664  0.05004013  0.60364726    -0.31900
H2241       H  0.78914716  0.05450632  0.61083084     0.29500
H2242       H  0.83015604  0.11665385  0.54015306     0.29500
H2243       H  0.79294445  0.11495710  0.57912690     0.20100
H2244       H  0.82533333  0.05352310  0.56829213     0.20100
C2245       C  0.82632697  0.94930778  0.55606790    -0.05800
C2246       C  0.80859519  0.95774301  0.55936439    -0.16900
C2247       C  0.79899783  0.95505871  0.57660986     0.11400
C2248       C  0.80747099  0.94402463  0.59102549    -0.05700
C2249       C  0.82454012  0.93459319  0.58711179    -0.16900
C2250       C  0.83382671  0.93681213  0.56978240     0.11500
S2251       S  0.77713847  0.96766165  0.58014038    -0.31900
S2252       S  0.85536507  0.92350029  0.56615589    -0.31900
H2253       H  0.85332606  0.92180340  0.54641971     0.29500
H2254       H  0.76739258  0.95167860  0.58711976     0.29500
H2255       H  0.80265954  0.96726551  0.54887848     0.20100
H2256       H  0.83099681  0.92576782  0.59790531     0.20100
C2257       C  0.04565691  0.86106429  0.36032307    -0.05800
C2258       C  0.03117331  0.86067460  0.34671641    -0.16900
C2259       C  0.03304333  0.85043074  0.32995182     0.11400
C2260       C  0.05011560  0.84069285  0.32612344    -0.05700
C2261       C  0.06419469  0.83996152  0.34018847    -0.16900
C2262       C  0.06218723  0.85011658  0.35721993     0.11500
S2263       S  0.01304007  0.85044532  0.31396220    -0.31900
S2264       S  0.08179475  0.84978837  0.37356616    -0.31900
H2265       H  0.08120091  0.86938833  0.37741044     0.29500
H2266       H  0.01649401  0.83223955  0.30651905     0.29500
H2267       H  0.01817965  0.86850610  0.34913867     0.20100
H2268       H  0.07736640  0.83259454  0.33736327     0.20100
C2269       C  0.92348519  0.85272164  0.36143996    -0.05800
C2270       C  0.93691225  0.85422284  0.34686964    -0.16900
C2271       C  0.93442912  0.84493261  0.32961921     0.11400
C2272       C  0.91756689  0.83452627  0.32618875    -0.05700
C2273       C  0.90493997  0.83147037  0.34128694    -0.16900
C2274       C  0.90796527  0.84011493  0.35901253     0.11500
S2275       S  0.95330606  0.84720181  0.31248862    -0.31900
S2276       S  0.89081954  0.83572464  0.37734227    -0.31900
H2277       H  0.90464329  0.83042543  0.39069244     0.29500
H2278       H  0.95043327  0.82917444  0.30433832     0.29500
H2279       H  0.94939981  0.86304929  0.34879502     0.20100
H2280       H  0.89219462  0.82312937  0.33902145     0.20100
C2281       C  0.05433048  0.85892696  0.55411788    -0.05800
C2282       C  0.04680878  0.84060919  0.55693202    -0.16900
C2283       C  0.04961017  0.83093138  0.57415414     0.11400
C2284       C  0.06067480  0.83952642  0.58852574    -0.05700
C2285       C  0.06952578  0.85701787  0.58482625    -0.16900
C2286       C  0.06651403  0.86674159  0.56793073     0.11500
S2287       S  0.03715944  0.80881462  0.57761433    -0.31900
S2288       S  0.07804914  0.88952129  0.56522343    -0.31900
H2289       H  0.07963204  0.88860852  0.54540066     0.29500
H2290       H  0.03116399  0.81299252  0.59612563     0.29500
H2291       H  0.03743426  0.83452572  0.54637528     0.20100
H2292       H  0.07829376  0.86362713  0.59560306     0.20100
C2293       C  0.91663373  0.85577232  0.55560145    -0.05800
C2294       C  0.93163792  0.84977943  0.56713651    -0.16900
C2295       C  0.92830730  0.84035799  0.58419105     0.11400
C2296       C  0.90949892  0.83715917  0.59028624    -0.05700
C2297       C  0.89441976  0.84182535  0.57816800    -0.16900
C2298       C  0.89779006  0.85125539  0.56092308     0.11500
S2299       S  0.94871198  0.83341106  0.59799679    -0.31900
S2300       S  0.87748793  0.85877965  0.54737680    -0.31900
H2301       H  0.88497160  0.87666307  0.54247457     0.29500
H2302       H  0.93979118  0.81812523  0.60728524     0.29500
H2303       H  0.94613694  0.85288572  0.56303070     0.20100
H2304       H  0.87994578  0.83958158  0.58284149     0.20100
C2305       C  0.37791738  0.08730074  0.10971018    -0.05800
C2306       C  0.37566687  0.08305461  0.12905217    -0.16900
C2307       C  0.35790423  0.08479908  0.13807632     0.11400
C2308       C  0.34205451  0.09158538  0.12779050    -0.05700
C2309       C  0.34463293  0.09653829  0.10869901    -0.16900
C2310       C  0.36218312  0.09468930  0.09968749     0.11500
S2311       S  0.35603757  0.07650344  0.16210275    -0.31900
S2312       S  0.36348944  0.10238421  0.07535531    -0.31900
H2313       H  0.38196856  0.10986746  0.07684680     0.29500
H2314       H  0.33875341  0.06686995  0.15921268     0.29500
H2315       H  0.38749941  0.07720778  0.13689618     0.20100
H2316       H  0.33278137  0.10202190  0.10060636     0.20100
C2317       C  0.34886659  0.95080291  0.13494975    -0.05800
C2318       C  0.36271609  0.93650661  0.13436986    -0.16900
C2319       C  0.37974141  0.93909539  0.12431734     0.11400
C2320       C  0.38330928  0.95655105  0.11500939    -0.05700
C2321       C  0.36984420  0.97112583  0.11646839    -0.16900
C2322       C  0.35289833  0.96856433  0.12643985     0.11500
S2323       S  0.39539468  0.91901720  0.12240541    -0.31900
S2324       S  0.33701487  0.98859761  0.12776661    -0.31900
H2325       H  0.32977555  0.98403689  0.14576393     0.29500
H2326       H  0.39949341  0.92182562  0.10312128     0.29500
H2327       H  0.35969767  0.92275997  0.14061161     0.20100
H2328       H  0.37252727  0.98469785  0.10970371     0.20100
C2329       C  0.57894601  0.08414790  0.11920714    -0.05800
C2330       C  0.58328520  0.10241422  0.12603883    -0.16900
C2331       C  0.60071676  0.10625163  0.13506540     0.11400
C2332       C  0.61398633  0.09141232  0.13777107    -0.05700
C2333       C  0.60891251  0.07294761  0.13210778    -0.16900
C2334       C  0.59163932  0.06914235  0.12311810     0.11500
S2335       S  0.60581572  0.13058051  0.14114958    -0.31900
S2336       S  0.58669733  0.04473905  0.11693332    -0.31900
H2337       H  0.56691023  0.04610312  0.11910276     0.29500
H2338       H  0.62419626  0.13047204  0.13340216     0.29500
H2339       H  0.57366172  0.11403383  0.12314862     0.20100
H2340       H  0.61869282  0.06131762  0.13441096     0.20100
C2341       C  0.58167298  0.95970224  0.11960562    -0.05800
C2342       C  0.59589875  0.97369352  0.11969079    -0.16900
C2343       C  0.61335962  0.97073861  0.12864326     0.11400
C2344       C  0.61695038  0.95324581  0.13779577    -0.05700
C2345       C  0.60220534  0.93981677  0.13917263    -0.16900
C2346       C  0.58469202  0.94276272  0.13001795     0.11500
S2347       S  0.63095328  0.98954989  0.12830020    -0.31900
S2348       S  0.56755160  0.92375205  0.13081655    -0.31900
H2349       H  0.56337201  0.92444566  0.11136056     0.29500
H2350       H  0.62068064  0.00250227  0.11715811     0.29500
H2351       H  0.59344518  0.98692257  0.11226894     0.20100
H2352       H  0.60479036  0.92639738  0.14622108     0.20100
C2353       C  0.34244760  0.19199201  0.03268668    -0.05800
C2354       C  0.35745318  0.20384961  0.02686725    -0.16900
C2355       C  0.37528895  0.19629221  0.02189254     0.11400
C2356       C  0.37826650  0.17637985  0.02267794    -0.05700
C2357       C  0.36353863  0.16483353  0.02961432    -0.16900
C2358       C  0.34603953  0.17236697  0.03501007     0.11500
S2359       S  0.39314169  0.21268025  0.01370780    -0.31900
S2360       S  0.32908110  0.15612647  0.04534594    -0.31900
H2361       H  0.32118113  0.16950110  0.05784757     0.29500
H2362       H  0.39904156  0.20119399  0.99854413     0.29500
H2363       H  0.35500640  0.21895333  0.02524593     0.20100
H2364       H  0.36573822  0.14966752  0.03109314     0.20100
C2365       C  0.38159465  0.18079970  0.89274952    -0.05800
C2366       C  0.36837243  0.18051459  0.90757541    -0.16900
C2367       C  0.35074810  0.18934929  0.90593740     0.11400
C2368       C  0.34574266  0.19852928  0.88883199    -0.05700
C2369       C  0.35938035  0.19988263  0.87436895    -0.16900
C2370       C  0.37714659  0.19097047  0.87605774     0.11500
S2371       S  0.33533480  0.18827237  0.92630392    -0.31900
S2372       S  0.39268478  0.19168351  0.85584942    -0.31900
H2373       H  0.39806847  0.17249837  0.85712681     0.29500
H2374       H  0.32712632  0.20621895  0.92328495     0.29500
H2375       H  0.37174498  0.17314580  0.92062230     0.20100
H2376       H  0.35571077  0.20676939  0.86115306     0.20100
C2377       C  0.58056349  0.17708855  0.02314122    -0.05800
C2378       C  0.59375877  0.16667388  0.03372446    -0.16900
C2379       C  0.61125024  0.17443428  0.03888987     0.11400
C2380       C  0.61614421  0.19300759  0.03294877    -0.05700
C2381       C  0.60261053  0.20384053  0.02313297    -0.16900
C2382       C  0.58494885  0.19601631  0.01800884     0.11500
S2383       S  0.62662929  0.15986080  0.05322797    -0.31900
S2384       S  0.56939742  0.21028769  0.00363901    -0.31900
H2385       H  0.56315896  0.19527295  0.99204601     0.29500
H2386       H  0.63471919  0.17510087  0.06332446     0.29500
H2387       H  0.59040860  0.15225458  0.03801821     0.20100
H2388       H  0.60626579  0.21801959  0.01836305     0.20100
C2389       C  0.58088101  0.18171478  0.88666507    -0.05800
C2390       C  0.59441786  0.17220712  0.87570860    -0.16900
C2391       C  0.61177227  0.18060026  0.87124987     0.11400
C2392       C  0.61609895  0.19896583  0.87805869    -0.05700
C2393       C  0.60212762  0.20916021  0.88790955    -0.16900
C2394       C  0.58460300  0.20062371  0.89247339     0.11500
S2395       S  0.62825787  0.16672511  0.85745416    -0.31900
S2396       S  0.56854290  0.21376320  0.90731528    -0.31900
H2397       H  0.56355768  0.19819982  0.91879604     0.29500
H2398       H  0.63725280  0.18234921  0.84880771     0.29500
H2399       H  0.59162206  0.15784014  0.87089502     0.20100
H2400       H  0.60543865  0.22315725  0.89340085     0.20100
C2401       C  0.38855890  0.85947583  0.02401498    -0.05800
C2402       C  0.38543563  0.84111741  0.01675795    -0.16900
C2403       C  0.36801635  0.83166032  0.01963122     0.11400
C2404       C  0.35366417  0.84053513  0.03042819    -0.05700
C2405       C  0.35738061  0.85834378  0.03854865    -0.16900
C2406       C  0.37457785  0.86775181  0.03566252     0.11500
S2407       S  0.36437710  0.80928816  0.00775041    -0.31900
S2408       S  0.37763352  0.89054667  0.04700057    -0.31900
H2409       H  0.39737536  0.88897411  0.04942870     0.29500
H2410       H  0.34523732  0.81243443  0.00314392     0.29500
H2411       H  0.39603284  0.83470711  0.00770309     0.20100
H2412       H  0.34653305  0.86529027  0.04688324     0.20100
C2413       C  0.38542909  0.85861032  0.89195132    -0.05800
C2414       C  0.37209946  0.85694383  0.90660697    -0.16900
C2415       C  0.35478029  0.84757086  0.90393332     0.11400
C2416       C  0.35018350  0.83995339  0.88596120    -0.05700
C2417       C  0.36391318  0.84057800  0.87157450    -0.16900
C2418       C  0.38137554  0.84995839  0.87431208     0.11500
S2419       S  0.33916935  0.84583139  0.92412072    -0.31900
S2420       S  0.39703865  0.85184759  0.85427837    -0.31900
H2421       H  0.40200603  0.87093788  0.85755776     0.29500
H2422       H  0.33095161  0.82838816  0.91881396     0.29500
H2423       H  0.37514684  0.86317265  0.92031181     0.20100
H2424       H  0.36052188  0.83489810  0.85772430     0.20100
C2425       C  0.62002717  0.84317903  0.03418476    -0.05800
C2426       C  0.60623472  0.83402436  0.02306814    -0.16900
C2427       C  0.58919415  0.84323985  0.01825986     0.11400
C2428       C  0.58565472  0.86181006  0.02511789    -0.05700
C2429       C  0.59905569  0.87036406  0.03709494    -0.16900
C2430       C  0.61597485  0.86126532  0.04181959     0.11500
S2431       S  0.57354069  0.83135891  0.00191036    -0.31900
S2432       S  0.63202967  0.87368455  0.05748283    -0.31900
H2433       H  0.63975566  0.85724539  0.06573360     0.29500
H2434       H  0.56933125  0.84774673  0.99132863     0.29500
H2435       H  0.60933293  0.82026323  0.01695155     0.20100
H2436       H  0.59641074  0.88444240  0.04270916     0.20100
C2437       C  0.58448732  0.86033707  0.89713900    -0.05800
C2438       C  0.58648352  0.84936871  0.88062901    -0.16900
C2439       C  0.60379204  0.84044166  0.87626500     0.11400
C2440       C  0.61930485  0.84218006  0.88886714    -0.05700
C2441       C  0.61666801  0.85187665  0.90601498    -0.16900
C2442       C  0.59951543  0.86069173  0.91037741     0.11500
S2443       S  0.60566304  0.82859408  0.85376703    -0.31900
S2444       S  0.59778460  0.87222292  0.93312772    -0.31900
H2445       H  0.57830381  0.86856466  0.93558663     0.29500
H2446       H  0.62370898  0.83596710  0.84941268     0.29500
H2447       H  0.57498810  0.84885304  0.87045420     0.20100
H2448       H  0.62827594  0.85291278  0.91604250     0.20100
C2449       C  0.38434543  0.08225766  0.79241083    -0.05800
C2450       C  0.37243323  0.06666638  0.78875855    -0.16900
C2451       C  0.35514690  0.06882388  0.77914941     0.11400
C2452       C  0.34935908  0.08709602  0.77317580    -0.05700
C2453       C  0.36190557  0.10248244  0.77556082    -0.16900
C2454       C  0.37916686  0.10031393  0.78532488     0.11500
S2455       S  0.34058334  0.04809246  0.77462450    -0.31900
S2456       S  0.39294137  0.12141404  0.78995294    -0.31900
H2457       H  0.39697800  0.11676938  0.80889453     0.29500
H2458       H  0.35315079  0.03452673  0.78206389     0.29500
H2459       H  0.37653597  0.05276758  0.79387870     0.20100
H2460       H  0.35758618  0.11656556  0.77114428     0.20100
C2461       C  0.38381435  0.96007742  0.79481613    -0.05800
C2462       C  0.38022941  0.94232537  0.78642215    -0.16900
C2463       C  0.36247110  0.93808215  0.77827675     0.11400
C2464       C  0.34795878  0.95197872  0.77819157    -0.05700
C2465       C  0.35215767  0.97012174  0.78541611    -0.16900
C2466       C  0.36985157  0.97437995  0.79336540     0.11500
S2467       S  0.35878717  0.91425589  0.76975714    -0.31900
S2468       S  0.37378480  0.99847382  0.80122759    -0.31900
H2469       H  0.39331850  0.99870202  0.79713692     0.29500
H2470       H  0.34148853  0.91176421  0.77938536     0.29500
H2471       H  0.39084844  0.93126614  0.78733665     0.20100
H2472       H  0.34145912  0.98114247  0.78501509     0.20100
C2473       C  0.58131727  0.08190186  0.79409922    -0.05800
C2474       C  0.59505856  0.06761445  0.79524158    -0.16900
C2475       C  0.61219979  0.06904322  0.78557649     0.11400
C2476       C  0.61630286  0.08556557  0.77494313    -0.05700
C2477       C  0.60191802  0.09911518  0.77226854    -0.16900
C2478       C  0.58443357  0.09746181  0.78177674     0.11500
S2479       S  0.62837698  0.04931240  0.78772717    -0.31900
S2480       S  0.56748274  0.11632606  0.77882254    -0.31900
H2481       H  0.56234632  0.11716622  0.79802958     0.29500
H2482       H  0.63641463  0.05157156  0.76963403     0.29500
H2483       H  0.59251042  0.05521222  0.80400001     0.20100
H2484       H  0.60479812  0.11172763  0.76394230     0.20100
C2485       C  0.58440627  0.95254853  0.79832337    -0.05800
C2486       C  0.59871629  0.94250576  0.80782059    -0.16900
C2487       C  0.61568216  0.93763549  0.79882543     0.11400
C2488       C  0.61889289  0.94322200  0.77986787    -0.05700
C2489       C  0.60431730  0.95248458  0.76999160    -0.16900
C2490       C  0.58724238  0.95741209  0.77907098     0.11500
S2491       S  0.63278178  0.92426270  0.81238290    -0.31900
S2492       S  0.57050235  0.97145633  0.76589973    -0.31900
H2493       H  0.56655131  0.98397297  0.78090204     0.29500
H2494       H  0.64045108  0.91445705  0.79683968     0.29500
H2495       H  0.59668928  0.93840859  0.82247163     0.20100
H2496       H  0.60674604  0.95708350  0.75555763     0.20100
C2497       C  0.04638873  0.42063948  0.12464856    -0.05800
C2498       C  0.03102043  0.40801392  0.12624779    -0.16900
C2499       C  0.03274123  0.39064469  0.13561472     0.11400
C2500       C  0.05051950  0.38505982  0.14296150    -0.05700
C2501       C  0.06561529  0.39814943  0.14264503    -0.16900
C2502       C  0.06363765  0.41599321  0.13383062     0.11500
S2503       S  0.01166385  0.37611370  0.13750533    -0.31900
S2504       S  0.08406157  0.43134669  0.13319145    -0.31900
H2505       H  0.07428054  0.44685761  0.14101159     0.29500
H2506       H  0.01683603  0.36737191  0.15465229     0.29500
H2507       H  0.01749378  0.41160999  0.11989925     0.20100
H2508       H  0.07927893  0.39409548  0.14837053     0.20100
C2509       C  0.91060999  0.38756207  0.14157728    -0.05800
C2510       C  0.92943560  0.39134997  0.13633268    -0.16900
C2511       C  0.93460029  0.40844935  0.12770699     0.11400
C2512       C  0.92058654  0.42217063  0.12364820    -0.05700
C2513       C  0.90192981  0.41900145  0.12998175    -0.16900
C2514       C  0.89673686  0.40175788  0.13868460     0.11500
S2515       S  0.95938170  0.41183793  0.12222327    -0.31900
S2516       S  0.87201076  0.39813149  0.14411564    -0.31900
H2517       H  0.87139548  0.37905103  0.13823412     0.29500
H2518       H  0.95929033  0.43164477  0.12492661     0.29500
H2519       H  0.94024947  0.38068937  0.13871209     0.20100
H2520       H  0.89106050  0.42941564  0.12692923     0.20100
C2521       C  0.06328570  0.65677808  0.13511875    -0.05800
C2522       C  0.05315438  0.64282287  0.14515375    -0.16900
C2523       C  0.04918117  0.62500091  0.13701399     0.11400
C2524       C  0.05575713  0.62084280  0.11855121    -0.05700
C2525       C  0.06696690  0.63437686  0.10913509    -0.16900
C2526       C  0.07108935  0.65202251  0.11729654     0.11500
S2527       S  0.03421513  0.60896648  0.15016990    -0.31900
S2528       S  0.08648823  0.66783578  0.10422503    -0.31900
H2529       H  0.09449736  0.67658253  0.12027289     0.29500
H2530       H  0.02319123  0.60336921  0.13452382     0.29500
H2531       H  0.04711807  0.64627950  0.15881983     0.20100
H2532       H  0.07249304  0.63121470  0.09517564     0.20100
C2533       C  0.92415760  0.61965412  0.11987804    -0.05800
C2534       C  0.93809321  0.63392623  0.11954753    -0.16900
C2535       C  0.93545475  0.65126747  0.12876089     0.11400
C2536       C  0.91812196  0.65498331  0.13809668    -0.05700
C2537       C  0.90462515  0.64030185  0.13955316    -0.16900
C2538       C  0.90743408  0.62270495  0.13051976     0.11500
S2539       S  0.95490166  0.66802025  0.12817598    -0.31900
S2540       S  0.88860578  0.60539353  0.13195928    -0.31900
H2541       H  0.88977037  0.59974047  0.11290917     0.29500
H2542       H  0.95106811  0.67605347  0.14599793     0.29500
H2543       H  0.95123626  0.63156436  0.11195474     0.20100
H2544       H  0.89131318  0.64294229  0.14672856     0.20100
C2545       C  0.13742027  0.41552601  0.02409861    -0.05800
C2546       C  0.12849447  0.40288138  0.03657381    -0.16900
C2547       C  0.13660010  0.38533398  0.04110592     0.11400
C2548       C  0.15424852  0.38021580  0.03311252    -0.05700
C2549       C  0.16369794  0.39325150  0.02132845    -0.16900
C2550       C  0.15526911  0.41066612  0.01641024     0.11500
S2551       S  0.12411092  0.36955436  0.05705898    -0.31900
S2552       S  0.16703001  0.42513865  0.99892043    -0.31900
H2553       H  0.15033561  0.43089080  0.98965996     0.29500
H2554       H  0.10922995  0.38196580  0.06171109     0.29500
H2555       H  0.11485952  0.40667309  0.04250391     0.20100
H2556       H  0.17704452  0.38929145  0.01486131     0.20100
C2557       C  0.14253485  0.41802516  0.89928202    -0.05800
C2558       C  0.15248458  0.41487717  0.88236016    -0.16900
C2559       C  0.16143304  0.39738911  0.87880807     0.11400
C2560       C  0.16005464  0.38251437  0.89225534    -0.05700
C2561       C  0.15104201  0.38622099  0.90958549    -0.16900
C2562       C  0.14271755  0.40379501  0.91337943     0.11500
S2563       S  0.17280745  0.39436030  0.85624981    -0.31900
S2564       S  0.13257520  0.40719495  0.93657982    -0.31900
H2565       H  0.13685066  0.42671384  0.93763673     0.29500
H2566       H  0.19015074  0.38878087  0.86435240     0.29500
H2567       H  0.15257257  0.42575463  0.87150413     0.20100
H2568       H  0.15024836  0.37518885  0.92026843     0.20100
C2569       C  0.14194075  0.61598917  0.03080687    -0.05800
C2570       C  0.16131151  0.61837327  0.02664167    -0.16900
C2571       C  0.17067743  0.63568535  0.03036389     0.11400
C2572       C  0.16046332  0.65096001  0.03838487    -0.05700
C2573       C  0.14148271  0.64800424  0.04361568    -0.16900
C2574       C  0.13222523  0.63082658  0.04012932     0.11500
S2575       S  0.19485209  0.63812926  0.02261149    -0.31900
S2576       S  0.10781980  0.62900776  0.04767889    -0.31900
H2577       H  0.10867235  0.60957072  0.05225825     0.29500
H2578       H  0.20125240  0.64521556  0.04009270     0.29500
H2579       H  0.16891631  0.60709878  0.01951527     0.20100
H2580       H  0.13352661  0.65947356  0.05004618     0.20100
C2581       C  0.14118833  0.61633420  0.88886041    -0.05800
C2582       C  0.13163197  0.62902866  0.87690970    -0.16900
C2583       C  0.13991815  0.64614919  0.87121315     0.11400
C2584       C  0.15813203  0.65121368  0.87800960    -0.05700
C2585       C  0.16820261  0.63806383  0.88907128    -0.16900
C2586       C  0.15998136  0.62065736  0.89445445     0.11500
S2587       S  0.12624809  0.66105928  0.85554280    -0.31900
S2588       S  0.17321641  0.60568108  0.91025874    -0.31900
H2589       H  0.17193284  0.58972967  0.89834530     0.29500
H2590       H  0.14204359  0.66899749  0.84624576     0.29500
H2591       H  0.11736969  0.62570768  0.87216762     0.20100
H2592       H  0.18208201  0.64183777  0.89452834     0.20100
C2593       C  0.82315713  0.42163509  0.02102558    -0.05800
C2594       C  0.81228775  0.42014902  0.03764828    -0.16900
C2595       C  0.80200785  0.40346856  0.04188790     0.11400
C2596       C  0.80236645  0.38798402  0.02905765    -0.05700
C2597       C  0.81215586  0.39021277  0.01189059    -0.16900
C2598       C  0.82227824  0.40673047  0.00769082     0.11500
S2599       S  0.78981175  0.40265140  0.06425915    -0.31900
S2600       S  0.83376061  0.40783114  0.98493774    -0.31900
H2601       H  0.83037013  0.42732879  0.98213376     0.29500
H2602       H  0.79445428  0.38377123  0.06838137     0.29500
H2603       H  0.81266627  0.43159288  0.04789774     0.20100
H2604       H  0.81220970  0.37874634  0.00164401     0.20100
C2605       C  0.82122333  0.42299491  0.89738234    -0.05800
C2606       C  0.81282438  0.41998901  0.87957682    -0.16900
C2607       C  0.80309460  0.40295811  0.87550417     0.11400
C2608       C  0.80143656  0.38878435  0.88965018    -0.05700
C2609       C  0.80850996  0.39264113  0.90780786    -0.16900
C2610       C  0.81810204  0.40951861  0.91184817     0.11500
S2611       S  0.79469674  0.39956639  0.85168111    -0.31900
S2612       S  0.82621564  0.41289308  0.93579681    -0.31900
H2613       H  0.82374688  0.43272592  0.93589672     0.29500
H2614       H  0.80105953  0.38073827  0.85034179     0.29500
H2615       H  0.81497898  0.43032368  0.86840704     0.20100
H2616       H  0.80700922  0.38210665  0.91891409     0.20100
C2617       C  0.83018222  0.62008054  0.02747182    -0.05800
C2618       C  0.81030738  0.62074306  0.02545769    -0.16900
C2619       C  0.80029158  0.63796329  0.02740378     0.11400
C2620       C  0.81032541  0.65492465  0.03154522    -0.05700
C2621       C  0.82996602  0.65384233  0.03466975    -0.16900
C2622       C  0.83983649  0.63679457  0.03309859     0.11500
S2623       S  0.77510466  0.63750907  0.02324513    -0.31900
S2624       S  0.86475178  0.63743932  0.03896326    -0.31900
H2625       H  0.86478446  0.61950996  0.04779719     0.29500
H2626       H  0.77487932  0.65441551  0.01263452     0.29500
H2627       H  0.80264727  0.60801796  0.02136887     0.20100
H2628       H  0.83784660  0.66651537  0.03853358     0.20100
C2629       C  0.81982679  0.61747730  0.89721748    -0.05800
C2630       C  0.81290557  0.62099471  0.87887565    -0.16900
C2631       C  0.80474220  0.63862106  0.87415241     0.11400
C2632       C  0.80310180  0.65289085  0.88816465    -0.05700
C2633       C  0.80849528  0.64860930  0.90679572    -0.16900
C2634       C  0.81651142  0.63110808  0.91150632     0.11500
S2635       S  0.79843351  0.64258993  0.84976054    -0.31900
S2636       S  0.82252602  0.62719439  0.93602673    -0.31900
H2637       H  0.81965388  0.60740373  0.93556550     0.29500
H2638       H  0.80556638  0.66125252  0.84889887     0.29500
H2639       H  0.81523562  0.61059701  0.86781962     0.20100
H2640       H  0.80694308  0.65926903  0.91775784     0.20100
C2641       C  0.05324394  0.38826028  0.77392486    -0.05800
C2642       C  0.03488889  0.39274900  0.78012607    -0.16900
C2643       C  0.03082675  0.41020877  0.78857914     0.11400
C2644       C  0.04557472  0.42345969  0.79183723    -0.05700
C2645       C  0.06361819  0.41976857  0.78420535    -0.16900
C2646       C  0.06761785  0.40230600  0.77531597     0.11500
S2647       S  0.00643876  0.41473641  0.79484384    -0.31900
S2648       S  0.09158823  0.39829233  0.76750759    -0.31900
H2649       H  0.09270282  0.37967091  0.77463678     0.29500
H2650       H  0.00747445  0.43450587  0.79199905     0.29500
H2651       H  0.02357443  0.38238596  0.77860884     0.20100
H2652       H  0.07499602  0.42993504  0.78633982     0.20100
C2653       C  0.92071232  0.42241189  0.79796446    -0.05800
C2654       C  0.93582520  0.41003462  0.79422789    -0.16900
C2655       C  0.93301901  0.39278501  0.78480791     0.11400
C2656       C  0.91458018  0.38738924  0.77902484    -0.05700
C2657       C  0.89957117  0.40021480  0.78168845    -0.16900
C2658       C  0.90238390  0.41753157  0.79128871     0.11500
S2659       S  0.95359552  0.37811934  0.78085070    -0.31900
S2660       S  0.88177391  0.43178895  0.79614503    -0.31900
H2661       H  0.88686066  0.43587982  0.81496562     0.29500
H2662       H  0.94684877  0.36973312  0.76406422     0.29500
H2663       H  0.94999653  0.41369653  0.79899027     0.20100
H2664       H  0.88533281  0.39612252  0.77753073     0.20100
C2665       C  0.06167895  0.65392818  0.78088555    -0.05800
C2666       C  0.07176982  0.64912323  0.79732088    -0.16900
C2667       C  0.06848399  0.63202866  0.80685856     0.11400
C2668       C  0.05457230  0.61925335  0.80005163    -0.05700
C2669       C  0.04522378  0.62344478  0.78297973    -0.16900
C2670       C  0.04838028  0.64075461  0.77349790     0.11500
S2671       S  0.08243913  0.62748427  0.82778048    -0.31900
S2672       S  0.03371832  0.64585776  0.75322834    -0.31900
H2673       H  0.03065322  0.66502189  0.75784292     0.29500
H2674       H  0.08263902  0.60760530  0.82573165     0.29500
H2675       H  0.08206463  0.65903972  0.80307937     0.20100
H2676       H  0.03441751  0.61380867  0.77772262     0.20100
C2677       C  0.91120460  0.61782731  0.79968037    -0.05800
C2678       C  0.91710571  0.62004836  0.78080301    -0.16900
C2679       C  0.91341250  0.63694044  0.77077818     0.11400
C2680       C  0.90319671  0.65175411  0.77967427    -0.05700
C2681       C  0.89592936  0.64865674  0.79791712    -0.16900
C2682       C  0.89964412  0.63194900  0.80787494     0.11500
S2683       S  0.92352545  0.63925365  0.74748270    -0.31900
S2684       S  0.88947160  0.62970104  0.83120865    -0.31900
H2685       H  0.88719985  0.60984397  0.83044736     0.29500
H2686       H  0.93013035  0.65791518  0.75005553     0.29500
H2687       H  0.92583475  0.60920931  0.77431969     0.20100
H2688       H  0.88774588  0.65969238  0.80479340     0.20100
loop_ 
_geom_bond_atom_site_label_1 
_geom_bond_atom_site_label_2 
_geom_bond_distance 
_geom_bond_site_symmetry_2 
_ccdc_geom_bond_type 
O1            C4   1.270       .  A
O1           Cd6   2.515       .  S
C2           O11   1.264       .  A
C2            O7   1.269       .  A
C2           C17   1.473       .  S
O3            C9   1.269       .  A
O3           Cd6   2.520       .  S
C4           O12   1.265       .  A
C4           C54   1.473       .  S
C5           O10   1.269       .  A
C5            O8   1.266       .  A
C5         C2677   1.482       .  S
Cd6          O13   2.421       .  S
Cd6          O12   2.435       .  S
Cd6          O11   2.444       .  S
Cd6           O7   2.516       .  S
Cd6          O10   2.512       .  S
Cd6           O8   2.431       .  S
C9           O13   1.263       .  A
C9           C31   1.470       .  S
O14          C17   1.268   1_455  A
O14         Cd19   2.514       .  S
C15          O24   1.266       .  A
C15          O20   1.270       .  A
C15         C108   1.471       .  S
O16          C22   1.270       .  A
O16         Cd19   2.540       .  S
C17          O25   1.264   1_655  A
C18          O23   1.269       .  A
C18          O21   1.266       .  A
C18        C2668   1.482       .  S
Cd19         O26   2.409       .  S
Cd19         O25   2.447       .  S
Cd19         O24   2.436       .  S
Cd19         O20   2.504       .  S
Cd19         O23   2.507       .  S
Cd19         O21   2.451       .  S
C22          O26   1.262       .  A
C22          C48   1.471       .  S
O27          C30   1.269       .  A
O27         Cd32   2.512       .  S
C28          O37   1.266       .  A
C28          O33   1.271       .  A
C28          C41   1.470       .  S
O29          C35   1.271       .  A
O29         Cd32   2.520       .  S
C30          O38   1.264       .  A
C30          C80   1.470       .  S
C31          O36   1.271       .  A
C31          O34   1.263       .  A
Cd32         O39   2.435       .  S
Cd32         O38   2.428       .  S
Cd32         O37   2.431       .  S
Cd32         O33   2.496       .  S
Cd32         O36   2.522       .  S
Cd32         O34   2.416       .  S
C35          O39   1.265       .  A
C35        C2653   1.486       .  S
O40          C43   1.267       .  A
O40         Cd45   2.501       .  S
C41          O50   1.265   1_655  A
C41          O46   1.269   1_655  A
O42          C48   1.270       .  A
O42         Cd45   2.538       .  S
C43          O51   1.265       .  A
C43         C132   1.471       .  S
C44          O49   1.270       .  A
C44          O47   1.265       .  A
C44        C2644   1.486       .  S
Cd45         O52   2.406       .  S
Cd45         O51   2.451       .  S
Cd45         O50   2.435       .  S
Cd45         O46   2.499       .  S
Cd45         O49   2.527       .  S
Cd45         O47   2.433       .  S
C48          O52   1.262       .  A
O53          C56   1.269       .  A
O53         Cd58   2.502       .  S
C54          O63   1.264       .  A
C54          O59   1.268       .  A
O55          C61   1.270       .  A
O55         Cd58   2.534       .  S
C56          O64   1.266       .  A
C56          C67   1.474       .  S
C57          O62   1.269       .  A
C57          O60   1.265       .  A
C57        C2629   1.485       .  S
Cd58         O65   2.404       .  S
Cd58         O64   2.450       .  S
Cd58         O63   2.443       .  S
Cd58         O59   2.515       .  S
Cd58         O62   2.524       .  S
Cd58         O60   2.433       .  S
C61          O65   1.262       .  A
C61          C83   1.469       .  S
O66          C69   1.271       .  A
O66         Cd71   2.514       .  S
C67          O76   1.265       .  A
C67          O72   1.270       .  A
O68          C74   1.272       .  A
O68         Cd71   2.526       .  S
C69          O77   1.266       .  A
C69         C158   1.475       .  S
C70          O75   1.271       .  A
C70          O73   1.265       .  A
C70        C2617   1.489       .  S
Cd71         O78   2.401       .  S
Cd71         O77   2.446       .  S
Cd71         O76   2.447   1_554  S
Cd71         O72   2.508   1_554  S
Cd71         O75   2.522       .  S
Cd71         O73   2.418       .  S
C74          O78   1.263       .  A
C74         C100   1.469       .  S
O79          C82   1.269       .  A
O79         Cd84   2.512       .  S
C80          O89   1.264       .  A
C80          O85   1.268       .  A
O81          C87   1.268       .  A
O81         Cd84   2.512       .  S
C82          O90   1.265       .  A
C82          C95   1.472       .  S
C83          O88   1.270       .  A
C83          O86   1.263       .  A
Cd84         O91   2.431       .  S
Cd84         O90   2.437       .  S
Cd84         O89   2.435       .  S
Cd84         O85   2.514       .  S
Cd84         O88   2.527       .  S
Cd84         O86   2.406       .  S
C87          O91   1.265       .  A
C87        C2605   1.482       .  S
O92          C95   1.270       .  A
O92         Cd97   2.514   1_556  S
C93         O102   1.264       .  A
C93          O98   1.270       .  A
C93         C186   1.472       .  S
O94         C100   1.271       .  A
O94         Cd97   2.525       .  S
C95         O103   1.265       .  A
C96         O101   1.270       .  A
C96          O99   1.266       .  A
C96        C2593   1.484       .  S
Cd97        O104   2.404       .  S
Cd97        O103   2.435   1_554  S
Cd97        O102   2.435       .  S
Cd97         O98   2.514       .  S
Cd97        O101   2.510       .  S
Cd97         O99   2.431       .  S
C100        O104   1.264       .  A
O105        C108   1.271       .  A
O105       Cd110   2.507       .  S
C106        O115   1.264       .  A
C106        O111   1.269       .  A
C106        C121   1.472       .  S
O107        C113   1.270       .  A
O107       Cd110   2.530       .  S
C108        O116   1.265       .  A
C109        O114   1.270       .  A
C109        O112   1.266       .  A
C109       C2581   1.483       .  S
Cd110       O117   2.403       .  S
Cd110       O116   2.430       .  S
Cd110       O115   2.444       .  S
Cd110       O111   2.507       .  S
Cd110       O114   2.501       .  S
Cd110       O112   2.431       .  S
C113        O117   1.263       .  A
C113        C139   1.470       .  S
O118        C121   1.269       .  A
O118       Cd123   2.498   1_556  S
C119        O128   1.265       .  A
C119        O124   1.270       .  A
C119        C173   1.468       .  S
O120        C126   1.272       .  A
O120       Cd123   2.532       .  S
C121        O129   1.266       .  A
C122        O127   1.272       .  A
C122        O125   1.265       .  A
C122       C2569   1.482       .  S
Cd123       O130   2.400       .  S
Cd123       O129   2.444   1_554  S
Cd123       O128   2.431       .  S
Cd123       O124   2.488       .  S
Cd123       O127   2.515       .  S
Cd123       O125   2.414       .  S
C126        O130   1.263       .  A
C126        C148   1.470       .  S
O131        C134   1.270       .  A
O131       Cd136   2.510       .  S
C132        O141   1.265       .  A
C132        O137   1.269       .  A
O133        C139   1.271       .  A
O133       Cd136   2.531       .  S
C134        O142   1.266       .  A
C134        C147   1.471       .  S
C135        O140   1.271       .  A
C135        O138   1.265       .  A
C135       C2557   1.481       .  S
Cd136       O143   2.403       .  S
Cd136       O142   2.427       .  S
Cd136       O141   2.443       .  S
Cd136       O137   2.498       .  S
Cd136       O140   2.512       .  S
Cd136       O138   2.420       .  S
C139        O143   1.263       .  A
O144        C147   1.270       .  A
O144       Cd149   2.516   1_556  S
C145        O154   1.266       .  A
C145        O150   1.271       .  A
C145        C197   1.472       .  S
O146        C152   1.270       .  A
O146       Cd149   2.502       .  S
C147        O155   1.264       .  A
C148        O153   1.271       .  A
C148        O151   1.264       .  A
Cd149       O156   2.428       .  S
Cd149       O155   2.423   1_554  S
Cd149       O154   2.437       .  S
Cd149       O150   2.504       .  S
Cd149       O153   2.527       .  S
Cd149       O151   2.403       .  S
C152        O156   1.266       .  A
C152       C2545   1.479       .  S
O157        C160   1.269       .  A
O157       Cd162   2.502       .  S
C158        O167   1.266       .  A
C158        O163   1.270       .  A
O159        C165   1.271       .  A
O159       Cd162   2.527       .  S
C160        O168   1.265       .  A
C160        C171   1.470       .  S
C161        O166   1.271       .  A
C161        O164   1.266       .  A
C161       C2533   1.483       .  S
Cd162       O169   2.398       .  S
Cd162       O168   2.440       .  S
Cd162       O167   2.446       .  S
Cd162       O163   2.512       .  S
Cd162       O166   2.510       .  S
Cd162       O164   2.425       .  S
C165        O169   1.263       .  A
C165        C191   1.468       .  S
O170        C173   1.269       .  A
O170       Cd175   2.485       .  S
C171        O180   1.265   1_655  A
C171        O176   1.268   1_655  A
O172        C178   1.272       .  A
O172       Cd175   2.544       .  S
C173        O181   1.267       .  A
C174        O179   1.271       .  A
C174        O177   1.265       .  A
C174       C2524   1.485       .  S
Cd175       O182   2.394       .  S
Cd175       O181   2.437       .  S
Cd175       O180   2.439       .  S
Cd175       O176   2.495       .  S
Cd175       O179   2.518       .  S
Cd175       O177   2.444       .  S
C178        O182   1.262       .  A
C178        C204   1.472       .  S
O183        C186   1.269       .  A
O183       Cd188   2.513       .  S
C184        O193   1.265       .  A
C184        O189   1.270       .  A
C184        C199   1.469       .  S
O185        C191   1.271       .  A
O185       Cd188   2.527       .  S
C186        O194   1.265       .  A
C187        O192   1.269       .  A
C187        O190   1.265       .  A
C187       C2512   1.483       .  S
Cd188       O195   2.397       .  S
Cd188       O194   2.439       .  S
Cd188       O193   2.433       .  S
Cd188       O189   2.493       .  S
Cd188       O192   2.510       .  S
Cd188       O190   2.436       .  S
C191        O195   1.263       .  A
O196        C199   1.268   1_455  A
O196       Cd201   2.493       .  S
C197        O206   1.265       .  A
C197        O202   1.267       .  A
O198        C204   1.270       .  A
O198       Cd201   2.546       .  S
C199        O207   1.266   1_655  A
C200        O205   1.269       .  A
C200        O203   1.265       .  A
C200       C2497   1.488       .  S
Cd201       O208   2.401       .  S
Cd201       O207   2.442       .  S
Cd201       O206   2.447       .  S
Cd201       O202   2.504       .  S
Cd201       O205   2.521       .  S
Cd201       O203   2.436       .  S
C204        O208   1.262       .  A
O209        C212   1.269       .  A
O209       Cd214   2.504   1_545  S
C210        O219   1.266       .  A
C210        O215   1.269       .  A
C210        C264   1.470       .  S
O211        C217   1.271       .  A
O211       Cd214   2.545       .  S
C212        O220   1.265       .  A
C212        C223   1.471       .  S
C213        O218   1.271       .  A
C213        O216   1.265       .  A
C213       C2485   1.488       .  S
Cd214       O221   2.414       .  S
Cd214       O220   2.436   1_565  S
Cd214       O219   2.441       .  S
Cd214       O215   2.498       .  S
Cd214       O218   2.516       .  S
Cd214       O216   2.446       .  S
C217        O221   1.263       .  A
C217        C243   1.475       .  S
O222        C225   1.269       .  A
O222       Cd227   2.515       .  S
C223        O232   1.265       .  A
C223        O228   1.270       .  A
O224        C230   1.270       .  A
O224       Cd227   2.524       .  S
C225        O233   1.265       .  A
C225        C314   1.474       .  S
C226        O231   1.269       .  A
C226        O229   1.266       .  A
C226       C2473   1.479       .  S
Cd227       O234   2.407       .  S
Cd227       O233   2.447       .  S
Cd227       O232   2.436       .  S
Cd227       O228   2.511       .  S
Cd227       O231   2.508       .  S
Cd227       O229   2.411       .  S
C230        O234   1.264       .  A
C230        C256   1.470       .  S
O235        C238   1.269       .  A
O235       Cd240   2.513       .  S
C236        O245   1.266       .  A
C236        O241   1.271       .  A
C236        C251   1.470       .  S
O237        C243   1.272       .  A
O237       Cd240   2.541       .  S
C238        O246   1.264       .  A
C238        C288   1.474       .  S
C239        O244   1.271       .  A
C239        O242   1.265       .  A
C239       C2461   1.487       .  S
Cd240       O247   2.412       .  S
Cd240       O246   2.446       .  S
Cd240       O245   2.426   1_565  S
Cd240       O241   2.504   1_565  S
Cd240       O244   2.526       .  S
Cd240       O242   2.440       .  S
C243        O247   1.264       .  A
O248        C251   1.271       .  A
O248       Cd253   2.500       .  S
C249        O258   1.264       .  A
C249        O254   1.269       .  A
C249        C342   1.471       .  S
O250        C256   1.271       .  A
O250       Cd253   2.532       .  S
C251        O259   1.266       .  A
C252        O257   1.270       .  A
C252        O255   1.265       .  A
C252       C2449   1.485       .  S
Cd253       O260   2.404       .  S
Cd253       O259   2.425       .  S
Cd253       O258   2.446       .  S
Cd253       O254   2.505       .  S
Cd253       O257   2.518       .  S
Cd253       O255   2.442       .  S
C256        O260   1.262       .  A
O261        C264   1.269       .  A
O261       Cd266   2.504       .  S
C262        O271   1.265       .  A
C262        O267   1.270       .  A
C262        C275   1.470       .  S
O263        C269   1.270       .  A
O263       Cd266   2.533       .  S
C264        O272   1.264       .  A
C265        O270   1.270       .  A
C265        O268   1.265       .  A
C265       C2437   1.483       .  S
Cd266       O273   2.419       .  S
Cd266       O272   2.439       .  S
Cd266       O271   2.421       .  S
Cd266       O267   2.517       .  S
Cd266       O270   2.514       .  S
Cd266       O268   2.433       .  S
C269        O273   1.264       .  A
C269        C295   1.474       .  S
O274        C277   1.270       .  A
O274       Cd279   2.500       .  S
C275        O284   1.263       .  A
C275        O280   1.269       .  A
O276        C282   1.270       .  A
O276       Cd279   2.519       .  S
C277        O285   1.267       .  A
C277        C368   1.473       .  S
C278        O283   1.271       .  A
C278        O281   1.263       .  A
C278        C308   1.473       .  S
Cd279       O286   2.439       .  S
Cd279       O285   2.446       .  S
Cd279       O284   2.421   1_554  S
Cd279       O280   2.521   1_554  S
Cd279       O283   2.533       .  S
Cd279       O281   2.415       .  S
C282        O286   1.265       .  A
C282       C2428   1.484       .  S
O287        C290   1.271       .  A
O287       Cd292   2.498       .  S
C288        O297   1.265       .  A
C288        O293   1.269       .  A
O289        C295   1.272       .  A
O289       Cd292   2.542       .  S
C290        O298   1.266       .  A
C290        C301   1.471       .  S
C291        O296   1.271       .  A
C291        O294   1.265       .  A
C291       C2413   1.486       .  S
Cd292       O299   2.415       .  S
Cd292       O298   2.431       .  S
Cd292       O297   2.450       .  S
Cd292       O293   2.509       .  S
Cd292       O296   2.527       .  S
Cd292       O294   2.435       .  S
C295        O299   1.263       .  A
O300        C303   1.270       .  A
O300       Cd305   2.502       .  S
C301        O310   1.264       .  A
C301        O306   1.269       .  A
O302        C308   1.270       .  A
O302       Cd305   2.533       .  S
C303        O311   1.266       .  A
C303        C392   1.474       .  S
C304        O309   1.270       .  A
C304        O307   1.265       .  A
C304       C2401   1.480       .  S
Cd305       O312   2.419       .  S
Cd305       O311   2.451       .  S
Cd305       O310   2.441   1_554  S
Cd305       O306   2.513   1_554  S
Cd305       O309   2.517       .  S
Cd305       O307   2.424       .  S
C308        O312   1.263       .  A
O313        C316   1.268       .  A
O313       Cd318   2.499       .  S
C314        O323   1.266       .  A
C314        O319   1.269       .  A
O315        C321   1.271       .  A
O315       Cd318   2.534       .  S
C316        O324   1.265       .  A
C316        C327   1.472       .  S
C317        O322   1.270       .  A
C317        O320   1.265       .  A
C317       C2389   1.480       .  S
Cd318       O325   2.388       .  S
Cd318       O324   2.456       .  S
Cd318       O323   2.446       .  S
Cd318       O319   2.509       .  S
Cd318       O322   2.512       .  S
Cd318       O320   2.418       .  S
C321        O325   1.262       .  A
C321        C347   1.468       .  S
O326        C329   1.271       .  A
O326       Cd331   2.497       .  S
C327        O336   1.266       .  A
C327        O332   1.270       .  A
O328        C334   1.272       .  A
O328       Cd331   2.528       .  S
C329        O337   1.266       .  A
C329        C379   1.472       .  S
C330        O335   1.272       .  A
C330        O333   1.265       .  A
C330       C2377   1.478       .  S
Cd331       O338   2.405       .  S
Cd331       O337   2.437       .  S
Cd331       O336   2.451   1_554  S
Cd331       O332   2.497   1_554  S
Cd331       O335   2.502       .  S
Cd331       O333   2.407       .  S
C334        O338   1.264       .  A
C334        C356   1.471       .  S
O339        C342   1.268       .  A
O339       Cd344   2.501       .  S
C340        O349   1.266       .  A
C340        O345   1.270       .  A
C340        C353   1.474       .  S
O341        C347   1.272       .  A
O341       Cd344   2.533       .  S
C342        O350   1.265       .  A
C343        O348   1.271       .  A
C343        O346   1.264       .  A
C343       C2365   1.483       .  S
Cd344       O351   2.386       .  S
Cd344       O350   2.447       .  S
Cd344       O349   2.448       .  S
Cd344       O345   2.501       .  S
Cd344       O348   2.521       .  S
Cd344       O346   2.415       .  S
C347        O351   1.263       .  A
O352        C355   1.271       .  A
O352       Cd357   2.506       .  S
C353        O362   1.265       .  A
C353        O358   1.270       .  A
O354        C360   1.271       .  A
O354       Cd357   2.540       .  S
C355        O363   1.266       .  A
C355        C407   1.472       .  S
C356        O361   1.273       .  A
C356        O359   1.264       .  A
Cd357       O364   2.441       .  S
Cd357       O363   2.436       .  S
Cd357       O362   2.448   1_554  S
Cd357       O358   2.509   1_554  S
Cd357       O361   2.527       .  S
Cd357       O359   2.400       .  S
C360        O364   1.266       .  A
C360       C2356   1.494       .  S
O365        C368   1.269       .  A
O365       Cd370   2.509       .  S
C366        O375   1.266       .  A
C366        O371   1.270       .  A
C366        C381   1.471       .  S
O367        C373   1.271       .  A
O367       Cd370   2.529       .  S
C368        O376   1.264       .  A
C369        O374   1.270       .  A
C369        O372   1.265       .  A
C369       C2341   1.488       .  S
Cd370       O377   2.409       .  S
Cd370       O376   2.449       .  S
Cd370       O375   2.434   1_565  S
Cd370       O371   2.507   1_565  S
Cd370       O374   2.525       .  S
Cd370       O372   2.428       .  S
C373        O377   1.263       .  A
C373        C399   1.471       .  S
O378        C381   1.270       .  A
O378       Cd383   2.505       .  S
C379        O388   1.265       .  A
C379        O384   1.268       .  A
O380        C386   1.271       .  A
O380       Cd383   2.537       .  S
C381        O389   1.266       .  A
C382        O387   1.270       .  A
C382        O385   1.265       .  A
C382       C2329   1.486       .  S
Cd383       O390   2.418       .  S
Cd383       O389   2.430       .  S
Cd383       O388   2.446       .  S
Cd383       O384   2.504       .  S
Cd383       O387   2.528       .  S
Cd383       O385   2.445       .  S
C386        O390   1.263       .  A
C386        C412   1.475       .  S
O391        C394   1.270   1_565  A
O391       Cd396   2.501       .  S
C392        O401   1.265       .  A
C392        O397   1.269       .  A
O393        C399   1.271       .  A
O393       Cd396   2.532       .  S
C394        O402   1.266       .  A
C394        C405   1.472       .  S
C395        O400   1.271       .  A
C395        O398   1.265       .  A
C395       C2320   1.485       .  S
Cd396       O403   2.408       .  S
Cd396       O402   2.438   1_565  S
Cd396       O401   2.456       .  S
Cd396       O397   2.506       .  S
Cd396       O400   2.511       .  S
Cd396       O398   2.440       .  S
C399        O403   1.263       .  A
O404        C407   1.270       .  A
O404       Cd409   2.501       .  S
C405        O414   1.265       .  A
C405        O410   1.269       .  A
O406        C412   1.273       .  A
O406       Cd409   2.538       .  S
C407        O415   1.266       .  A
C408        O413   1.272       .  A
C408        O411   1.264       .  A
C408       C2305   1.492       .  S
Cd409       O416   2.414       .  S
Cd409       O415   2.437       .  S
Cd409       O414   2.443       .  S
Cd409       O410   2.505       .  S
Cd409       O413   2.539       .  S
Cd409       O411   2.436       .  S
C412        O416   1.264       .  A
O417        C420   1.269       .  A
O417       Cd422   2.506       .  S
C418        O427   1.264       .  A
C418        O423   1.268       .  A
C418        C470   1.469       .  S
O419        C425   1.270       .  A
O419       Cd422   2.528       .  S
C420        O428   1.266       .  A
C420        C433   1.474       .  S
C421        O426   1.268       .  A
C421        O424   1.264       .  A
C421       C2293   1.478       .  S
Cd422       O429   2.394       .  S
Cd422       O428   2.448       .  S
Cd422       O427   2.434       .  S
Cd422       O423   2.504       .  S
Cd422       O426   2.512       .  S
Cd422       O424   2.434       .  S
C425        O429   1.262       .  A
C425        C451   1.466       .  S
O430        C433   1.270   1_455  A
O430       Cd435   2.515       .  S
C431        O440   1.265       .  A
C431        O436   1.271       .  A
C431        C522   1.475       .  S
O432        C438   1.269       .  A
O432       Cd435   2.507       .  S
C433        O441   1.264   1_655  A
C434        O439   1.270       .  A
C434        O437   1.264       .  A
C434        C464   1.467       .  S
Cd435       O442   2.423       .  S
Cd435       O441   2.441       .  S
Cd435       O440   2.440       .  S
Cd435       O436   2.521       .  S
Cd435       O439   2.511       .  S
Cd435       O437   2.404       .  S
C438        O442   1.266       .  A
C438       C2281   1.477       .  S
O443        C446   1.268       .  A
O443       Cd448   2.495       .  S
C444        O453   1.264       .  A
C444        O449   1.269       .  A
C444        C459   1.471       .  S
O445        C451   1.270       .  A
O445       Cd448   2.524       .  S
C446        O454   1.265       .  A
C446        C496   1.472       .  S
C447        O452   1.268       .  A
C447        O450   1.266       .  A
C447       C2269   1.487       .  S
Cd448       O455   2.394       .  S
Cd448       O454   2.456       .  S
Cd448       O453   2.434       .  S
Cd448       O449   2.511       .  S
Cd448       O452   2.509       .  S
Cd448       O450   2.423       .  S
C451        O455   1.262       .  A
O456        C459   1.271   1_455  A
O456       Cd461   2.508       .  S
C457        O466   1.264       .  A
C457        O462   1.269       .  A
C457        C548   1.471       .  S
O458        C464   1.270       .  A
O458       Cd461   2.515       .  S
C459        O467   1.265   1_655  A
C460        O465   1.270       .  A
C460        O463   1.266       .  A
C460       C2257   1.482       .  S
Cd461       O468   2.406       .  S
Cd461       O467   2.428       .  S
Cd461       O466   2.436       .  S
Cd461       O462   2.507       .  S
Cd461       O465   2.502       .  S
Cd461       O463   2.416       .  S
C464        O468   1.264       .  A
O469        C472   1.269   1_565  A
O469       Cd474   2.509       .  S
C470        O479   1.265       .  A
C470        O475   1.271       .  A
O471        C477   1.270       .  A
O471       Cd474   2.498       .  S
C472        O480   1.264   1_545  A
C472        C485   1.470       .  S
C473        O478   1.270       .  A
C473        O476   1.264       .  A
C473        C503   1.470       .  S
Cd474       O481   2.434       .  S
Cd474       O480   2.432       .  S
Cd474       O479   2.425       .  S
Cd474       O475   2.503       .  S
Cd474       O478   2.520       .  S
Cd474       O476   2.416       .  S
C477        O481   1.266       .  A
C477       C2245   1.480       .  S
O482        C485   1.269       .  A
O482       Cd487   2.500       .  S
C483        O492   1.264       .  A
C483        O488   1.268       .  A
C483        C576   1.471       .  S
O484        C490   1.270       .  A
O484       Cd487   2.543       .  S
C485        O493   1.266       .  A
C486        O491   1.270       .  A
C486        O489   1.266       .  A
C486       C2236   1.484       .  S
Cd487       O494   2.409       .  S
Cd487       O493   2.432       .  S
Cd487       O492   2.450       .  S
Cd487       O488   2.505       .  S
Cd487       O491   2.502       .  S
Cd487       O489   2.429       .  S
C490        O494   1.262       .  A
C490        C516   1.472       .  S
O495        C498   1.271   1_565  A
O495       Cd500   2.499       .  S
C496        O505   1.266       .  A
C496        O501   1.269       .  A
O497        C503   1.273       .  A
O497       Cd500   2.522       .  S
C498        O506   1.265   1_545  A
C498        C509   1.469       .  S
C499        O504   1.272       .  A
C499        O502   1.265       .  A
C499       C2221   1.488       .  S
Cd500       O507   2.404       .  S
Cd500       O506   2.427       .  S
Cd500       O505   2.450       .  S
Cd500       O501   2.491       .  S
Cd500       O504   2.531       .  S
Cd500       O502   2.414       .  S
C503        O507   1.264       .  A
O508        C511   1.270       .  A
O508       Cd513   2.500       .  S
C509        O518   1.266       .  A
C509        O514   1.270       .  A
O510        C516   1.272       .  A
O510       Cd513   2.536       .  S
C511        O519   1.265       .  A
C511        C600   1.469       .  S
C512        O517   1.271       .  A
C512        O515   1.266       .  A
C512       C2212   1.486       .  S
Cd513       O520   2.401       .  S
Cd513       O519   2.428       .  S
Cd513       O518   2.431       .  S
Cd513       O514   2.499       .  S
Cd513       O517   2.511       .  S
Cd513       O515   2.440       .  S
C516        O520   1.263       .  A
O521        C524   1.270       .  A
O521       Cd526   2.515   1_545  S
C522        O531   1.264       .  A
C522        O527   1.269       .  A
O523        C529   1.270       .  A
O523       Cd526   2.536       .  S
C524        O532   1.265       .  A
C524        C535   1.472       .  S
C525        O530   1.269       .  A
C525        O528   1.265       .  A
C525       C2197   1.487       .  S
Cd526       O533   2.418       .  S
Cd526       O532   2.436   1_565  S
Cd526       O531   2.446       .  S
Cd526       O527   2.523       .  S
Cd526       O530   2.524       .  S
Cd526       O528   2.450       .  S
C529        O533   1.263       .  A
C529        C551   1.472       .  S
O534        C537   1.268       .  A
O534       Cd539   2.497       .  S
C535        O544   1.266       .  A
C535        O540   1.270       .  A
O536        C542   1.271       .  A
O536       Cd539   2.541       .  S
C537        O545   1.264       .  A
C537        C587   1.468       .  S
C538        O543   1.270       .  A
C538        O541   1.265       .  A
C538       C2185   1.481       .  S
Cd539       O546   2.409       .  S
Cd539       O545   2.432       .  S
Cd539       O544   2.432       .  S
Cd539       O540   2.506       .  S
Cd539       O543   2.518       .  S
Cd539       O541   2.430       .  S
C542        O546   1.263       .  A
C542        C568   1.473       .  S
O547        C550   1.269       .  A
O547       Cd552   2.510   1_545  S
C548        O557   1.265       .  A
C548        O553   1.269       .  A
O549        C555   1.269       .  A
O549       Cd552   2.517       .  S
C550        O558   1.266       .  A
C550        C563   1.475       .  S
C551        O556   1.270       .  A
C551        O554   1.262       .  A
Cd552       O559   2.439       .  S
Cd552       O558   2.454   1_565  S
Cd552       O557   2.439       .  S
Cd552       O553   2.507       .  S
Cd552       O556   2.537       .  S
Cd552       O554   2.413       .  S
C555        O559   1.266       .  A
C555       C2173   1.485       .  S
O560        C563   1.269       .  A
O560       Cd565   2.513       .  S
C561        O570   1.266       .  A
C561        O566   1.270       .  A
C561        C615   1.469       .  S
O562        C568   1.271       .  A
O562       Cd565   2.543       .  S
C563        O571   1.265       .  A
C564        O569   1.271       .  A
C564        O567   1.265       .  A
C564       C2164   1.486       .  S
Cd565       O572   2.412       .  S
Cd565       O571   2.453       .  S
Cd565       O570   2.422       .  S
Cd565       O566   2.503       .  S
Cd565       O569   2.516       .  S
Cd565       O567   2.443       .  S
C568        O572   1.263       .  A
O573        C576   1.268       .  A
O573       Cd578   2.501       .  S
C574        O583   1.265       .  A
C574        O579   1.269       .  A
C574        C589   1.468       .  S
O575        C581   1.271       .  A
O575       Cd578   2.540       .  S
C576        O584   1.265       .  A
C577        O582   1.270       .  A
C577        O580   1.265       .  A
C577       C2149   1.483       .  S
Cd578       O585   2.412       .  S
Cd578       O584   2.445       .  S
Cd578       O583   2.430       .  S
Cd578       O579   2.501       .  S
Cd578       O582   2.512       .  S
Cd578       O580   2.442       .  S
C581        O585   1.262       .  A
C581        C607   1.473       .  S
O586        C589   1.271   1_455  A
O586       Cd591   2.499       .  S
C587        O596   1.265       .  A
C587        O592   1.269       .  A
O588        C594   1.271       .  A
O588       Cd591   2.533       .  S
C589        O597   1.265   1_655  A
C590        O595   1.271       .  A
C590        O593   1.265       .  A
C590       C2137   1.480       .  S
Cd591       O598   2.410       .  S
Cd591       O597   2.420       .  S
Cd591       O596   2.429       .  S
Cd591       O592   2.496       .  S
Cd591       O595   2.502       .  S
Cd591       O593   2.419       .  S
C594        O598   1.264       .  A
C594        C620   1.473       .  S
O599        C602   1.268       .  A
O599       Cd604   2.497       .  S
C600        O609   1.266       .  A
C600        O605   1.270       .  A
O601        C607   1.271       .  A
O601       Cd604   2.541       .  S
C602        O610   1.266       .  A
C602        C613   1.473       .  S
C603        O608   1.271       .  A
C603        O606   1.265       .  A
C603       C2125   1.487       .  S
Cd604       O611   2.414       .  S
Cd604       O610   2.464       .  S
Cd604       O609   2.430       .  S
Cd604       O605   2.498       .  S
Cd604       O608   2.521       .  S
Cd604       O606   2.432       .  S
C607        O611   1.263       .  A
O612        C615   1.271       .  A
O612       Cd617   2.500       .  S
C613        O622   1.266       .  A
C613        O618   1.269       .  A
O614        C620   1.272       .  A
O614       Cd617   2.537       .  S
C615        O623   1.266       .  A
C616        O621   1.272       .  A
C616        O619   1.265       .  A
C616       C2113   1.487       .  S
Cd617       O624   2.406       .  S
Cd617       O623   2.418       .  S
Cd617       O622   2.461   1_455  S
Cd617       O618   2.496   1_455  S
Cd617       O621   2.521       .  S
Cd617       O619   2.415       .  S
C620        O624   1.263       .  A
O625        C628   1.272       .  A
O625       Cd630   2.481       .  S
C626        O635   1.265       .  A
C626        O631   1.269       .  A
C626       C2104   1.481   1_554  S
O627        C633   1.272       .  A
O627       Cd630   2.533       .  S
C628        O636   1.266       .  A
C628       C2077   1.490       .  S
C629        O634   1.272       .  A
C629        O632   1.266       .  A
C629       C2089   1.489       .  S
Cd630       O637   2.409       .  S
Cd630       O636   2.422       .  S
Cd630       O635   2.437       .  S
Cd630       O631   2.503       .  S
Cd630       O634   2.513       .  S
Cd630       O632   2.442       .  S
C633        O637   1.262       .  A
C633       C2548   1.482       .  S
O638        C641   1.269       .  A
O638       Cd643   2.500       .  S
C639        O648   1.266       .  A
C639        O644   1.269       .  A
C639       C2056   1.493       .  S
O640        C646   1.271       .  A
O640       Cd643   2.520       .  S
C641        O649   1.266       .  A
C641       C2101   1.490       .  S
C642        O647   1.271       .  A
C642        O645   1.265       .  A
C642       C2065   1.490       .  S
Cd643       O650   2.426       .  S
Cd643       O649   2.446       .  S
Cd643       O648   2.453       .  S
Cd643       O644   2.488       .  S
Cd643       O647   2.517       .  S
Cd643       O645   2.439       .  S
C646        O650   1.264       .  A
C646       C2560   1.489       .  S
O651        C654   1.269   1_554  A
O651       Cd656   2.472       .  S
C652        O661   1.267       .  A
C652        O657   1.270       .  A
C652       C2032   1.480       .  S
O653        C659   1.272       .  A
O653       Cd656   2.538       .  S
C654        O662   1.265   1_556  A
C654       C2041   1.483       .  S
C655        O660   1.272       .  A
C655        O658   1.265       .  A
C655       C2092   1.485       .  S
Cd656       O663   2.426       .  S
Cd656       O662   2.435       .  S
Cd656       O661   2.421       .  S
Cd656       O657   2.473       .  S
Cd656       O660   2.507       .  S
Cd656       O658   2.439       .  S
C659        O663   1.264       .  A
C659       C2353   1.490       .  S
O664        C667   1.271       .  A
O664       Cd669   2.494       .  S
C665        O674   1.266       .  A
C665        O670   1.272       .  A
C665       C2044   1.482       .  S
O666        C672   1.273       .  A
O666       Cd669   2.516       .  S
C667        O675   1.266       .  A
C667       C2020   1.485       .  S
C668        O673   1.270       .  A
C668        O671   1.266       .  A
C668       C2068   1.489       .  S
Cd669       O676   2.416       .  S
Cd669       O675   2.422       .  S
Cd669       O674   2.404       .  S
Cd669       O670   2.479       .  S
Cd669       O673   2.501       .  S
Cd669       O671   2.445       .  S
C672        O676   1.264       .  A
C672       C2368   1.485       .  S
O677        C680   1.269       .  A
O677       Cd682   2.479       .  S
C678        O687   1.264       .  A
C678        O683   1.270       .  A
C678       C2005   1.478   1_455  S
O679        C685   1.270       .  A
O679       Cd682   2.502       .  S
C680        O688   1.268       .  A
C680       C2080   1.488       .  S
C681        O686   1.271       .  A
C681        O684   1.262       .  A
C681       C2500   1.482       .  S
Cd682       O689   2.437       .  S
Cd682       O688   2.436       .  S
Cd682       O687   2.413       .  S
Cd682       O683   2.495       .  S
Cd682       O686   2.534       .  S
Cd682       O684   2.407       .  S
C685        O689   1.265       .  A
C685       C1993   1.480       .  S
O690        C693   1.269       .  A
O690       Cd695   2.472       .  S
C691        O700   1.266       .  A
C691        O696   1.270       .  A
C691       C2008   1.478       .  S
O692        C698   1.273       .  A
O692       Cd695   2.528       .  S
C693        O701   1.267       .  A
C693       C1969   1.485       .  S
C694        O699   1.272       .  A
C694        O697   1.265       .  A
C694       C1984   1.487       .  S
Cd695       O702   2.406       .  S
Cd695       O701   2.441       .  S
Cd695       O700   2.422       .  S
Cd695       O696   2.481       .  S
Cd695       O699   2.515       .  S
Cd695       O697   2.427       .  S
C698        O702   1.263       .  A
C698       C2509   1.481       .  S
O703        C706   1.270       .  A
O703       Cd708   2.474       .  S
C704        O713   1.264       .  A
C704        O709   1.268       .  A
C704       C1957   1.484   1_455  S
O705        C711   1.271       .  A
O705       Cd708   2.525       .  S
C706        O714   1.267       .  A
C706       C1945   1.485       .  S
C707        O712   1.270       .  A
C707        O710   1.264       .  A
C707       C1996   1.479       .  S
Cd708       O715   2.409       .  S
Cd708       O714   2.427       .  S
Cd708       O713   2.406       .  S
Cd708       O709   2.496       .  S
Cd708       O712   2.500       .  S
Cd708       O710   2.435       .  S
C711        O715   1.263       .  A
C711       C2116   1.483       .  S
O716        C719   1.270       .  A
O716       Cd721   2.502       .  S
C717        O726   1.267       .  A
C717        O722   1.271       .  A
C717       C1933   1.479       .  S
O718        C724   1.273       .  A
O718       Cd721   2.532       .  S
C719        O727   1.264       .  A
C719       C1960   1.485       .  S
C720        O725   1.272       .  A
C720        O723   1.266       .  A
C720       C1981   1.486       .  S
Cd721       O728   2.412       .  S
Cd721       O727   2.409       .  S
Cd721       O726   2.423       .  S
Cd721       O722   2.470       .  S
Cd721       O725   2.513       .  S
Cd721       O723   2.433       .  S
C724        O728   1.264       .  A
C724       C2128   1.490       .  S
O729        C732   1.269       .  A
O729       Cd734   2.481       .  S
C730        O739   1.267       .  A
C730        O735   1.269       .  A
C730       C1897   1.483       .  S
O731        C737   1.272       .  A
O731       Cd734   2.520       .  S
C732        O740   1.266       .  A
C732       C1924   1.482       .  S
C733        O738   1.270       .  A
C733        O736   1.266       .  A
C733       C1909   1.493       .  S
Cd734       O741   2.414       .  S
Cd734       O740   2.403       .  S
Cd734       O739   2.438       .  S
Cd734       O735   2.465       .  S
Cd734       O738   2.509       .  S
Cd734       O736   2.438       .  S
C737        O741   1.262       .  A
C737       C2317   1.483       .  S
O742        C745   1.268       .  A
O742       Cd747   2.462       .  S
C743        O752   1.266       .  A
C743        O748   1.270       .  A
C743       C1921   1.477       .  S
O744        C750   1.274       .  A
O744       Cd747   2.543       .  S
C745        O753   1.268       .  A
C745       C2029   1.483       .  S
C746        O751   1.273       .  A
C746        O749   1.264       .  A
C746       C1888   1.486       .  S
Cd747       O754   2.424       .  S
Cd747       O753   2.440       .  S
Cd747       O752   2.410       .  S
Cd747       O748   2.481       .  S
Cd747       O751   2.545       .  S
Cd747       O749   2.415       .  S
C750        O754   1.264       .  A
C750       C2308   1.494       .  S
O755        C758   1.269       .  A
O755       Cd760   2.477       .  S
C756        O765   1.265       .  A
C756        O761   1.271       .  A
C756       C1873   1.479       .  S
O757        C763   1.274       .  A
O757       Cd760   2.530       .  S
C758        O766   1.268       .  A
C758       C1861   1.486       .  S
C759        O764   1.272       .  A
C759        O762   1.265       .  A
C759       C1912   1.489       .  S
Cd760       O767   2.393       .  S
Cd760       O766   2.450       .  S
Cd760       O765   2.411       .  S
Cd760       O761   2.478       .  S
Cd760       O764   2.526       .  S
Cd760       O762   2.427       .  S
C763        O767   1.262       .  A
C763       C2176   1.482       .  S
O768        C771   1.269       .  A
O768       Cd773   2.476       .  S
C769        O778   1.268       .  A
C769        O774   1.267       .  A
C769       C1948   1.489       .  S
O770        C776   1.272       .  A
O770       Cd773   2.536       .  S
C771        O779   1.266       .  A
C771       C1876   1.478       .  S
C772        O777   1.273       .  A
C772        O775   1.265       .  A
C772       C1885   1.488       .  S
Cd773       O780   2.429       .  S
Cd773       O779   2.427       .  S
Cd773       O778   2.437       .  S
Cd773       O774   2.467       .  S
Cd773       O777   2.544       .  S
Cd773       O775   2.409       .  S
C776        O780   1.262       .  A
C776       C2161   1.486       .  S
O781        C784   1.271       .  A
O781       Cd786   2.471       .  S
C782        O791   1.266       .  A
C782        O787   1.272       .  A
C782       C1849   1.481       .  S
O783        C789   1.275       .  A
O783       Cd786   2.525       .  S
C784        O792   1.267       .  A
C784       C1825   1.486       .  S
C785        O790   1.274       .  A
C785        O788   1.266       .  A
C785       C1837   1.487       .  S
Cd786       O793   2.396       .  S
Cd786       O792   2.433       .  S
Cd786       O791   2.414       .  S
Cd786       O787   2.478       .  S
Cd786       O790   2.524       .  S
Cd786       O788   2.394       .  S
C789        O793   1.265       .  A
C789       C2440   1.483       .  S
O794        C797   1.269   1_554  A
O794       Cd799   2.477       .  S
C795        O804   1.268       .  A
C795        O800   1.269       .  A
C795       C1801   1.488       .  S
O796        C802   1.273       .  A
O796       Cd799   2.522       .  S
C797        O805   1.265   1_556  A
C797       C1852   1.477       .  S
C798        O803   1.270       .  A
C798        O801   1.265       .  A
C798       C1813   1.487       .  S
Cd799       O806   2.401       .  S
Cd799       O805   2.426       .  S
Cd799       O804   2.444       .  S
Cd799       O800   2.472       .  S
Cd799       O803   2.507       .  S
Cd799       O801   2.433       .  S
C802        O806   1.263       .  A
C802       C2425   1.479       .  S
O807        C810   1.270       .  A
O807       Cd812   2.487       .  S
C808        O817   1.264       .  A
C808        O813   1.270       .  A
C808       C1777   1.491       .  S
O809        C815   1.273       .  A
O809       Cd812   2.539       .  S
C810        O818   1.267       .  A
C810       C1789   1.485       .  S
C811        O816   1.273       .  A
C811        O814   1.265       .  A
C811       C1840   1.486       .  S
Cd812       O819   2.414       .  S
Cd812       O818   2.425       .  S
Cd812       O817   2.424       .  S
Cd812       O813   2.485       .  S
Cd812       O816   2.528       .  S
Cd812       O814   2.413       .  S
C815        O819   1.263       .  A
C815       C2632   1.483       .  S
O820        C823   1.271       .  A
O820       Cd825   2.480       .  S
C821        O830   1.266   1_556  A
C821        O826   1.269   1_556  A
C821       C1792   1.481       .  S
O822        C828   1.273       .  A
O822       Cd825   2.551       .  S
C823        O831   1.266       .  A
C823       C1768   1.480       .  S
C824        O829   1.272       .  A
C824        O827   1.266       .  A
C824       C1816   1.489       .  S
Cd825       O832   2.399       .  S
Cd825       O831   2.420       .  S
Cd825       O830   2.442       .  S
Cd825       O826   2.493       .  S
Cd825       O829   2.505       .  S
Cd825       O827   2.436       .  S
C828        O832   1.263       .  A
C828       C2620   1.490       .  S
O833        C836   1.269       .  A
O833       Cd838   2.448       .  S
C834        O843   1.265       .  A
C834        O839   1.268       .  A
C834       C1753   1.476       .  S
O835        C841   1.271       .  A
O835       Cd838   2.513       .  S
C836        O844   1.269       .  A
C836       C1828   1.484       .  S
C837        O842   1.273       .  A
C837        O840   1.262       .  A
C837       C2488   1.482       .  S
Cd838       O845   2.444       .  S
Cd838       O844   2.447       .  S
Cd838       O843   2.432       .  S
Cd838       O839   2.480       .  S
Cd838       O842   2.540       .  S
Cd838       O840   2.413       .  S
C841        O845   1.265       .  A
C841       C1741   1.494       .  S
O846        C849   1.269       .  A
O846       Cd851   2.481       .  S
C847        O856   1.264       .  A
C847        O852   1.268       .  A
C847       C1756   1.484       .  S
O848        C854   1.271       .  A
O848       Cd851   2.530       .  S
C849        O857   1.265       .  A
C849       C1717   1.492       .  S
C850        O855   1.270       .  A
C850        O853   1.265       .  A
C850       C1729   1.480       .  S
Cd851       O858   2.389       .  S
Cd851       O857   2.441       .  S
Cd851       O856   2.420       .  S
Cd851       O852   2.488       .  S
Cd851       O855   2.490       .  S
Cd851       O853   2.431       .  S
C854        O858   1.262       .  A
C854       C2476   1.481       .  S
O859        C862   1.269       .  A
O859       Cd864   2.473       .  S
C860        O869   1.262       .  A
C860        O865   1.268       .  A
C860       C1705   1.477   1_565  S
O861        C867   1.269       .  A
O861       Cd864   2.534       .  S
C862        O870   1.268       .  A
C862       C1693   1.490       .  S
C863        O868   1.271       .  A
C863        O866   1.266       .  A
C863       C1744   1.485       .  S
Cd864       O871   2.429       .  S
Cd864       O870   2.424       .  S
Cd864       O869   2.425       .  S
Cd864       O865   2.491       .  S
Cd864       O868   2.492       .  S
Cd864       O866   2.443       .  S
C867        O871   1.262       .  A
C867       C2248   1.483       .  S
O872        C875   1.268       .  A
O872       Cd877   2.463       .  S
C873        O882   1.268       .  A
C873        O878   1.268       .  A
C873       C1684   1.483       .  S
O874        C880   1.273       .  A
O874       Cd877   2.527       .  S
C875        O883   1.266       .  A
C875       C1708   1.479       .  S
C876        O881   1.271       .  A
C876        O879   1.265       .  A
C876       C1732   1.482       .  S
Cd877       O884   2.390       .  S
Cd877       O883   2.424       .  S
Cd877       O882   2.449       .  S
Cd877       O878   2.461       .  S
Cd877       O881   2.502       .  S
Cd877       O879   2.432       .  S
C880        O884   1.261       .  A
C880       C2233   1.482       .  S
O885        C888   1.268       .  A
O885       Cd890   2.480       .  S
C886        O895   1.269       .  A
C886        O891   1.269       .  A
C886       C1780   1.485       .  S
O887        C893   1.272       .  A
O887       Cd890   2.518       .  S
C888        O896   1.264       .  A
C888       C1669   1.472       .  S
C889        O894   1.274       .  A
C889        O892   1.263       .  A
C889       C2680   1.484       .  S
Cd890       O897   2.420       .  S
Cd890       O896   2.402       .  S
Cd890       O895   2.423       .  S
Cd890       O891   2.456       .  S
Cd890       O894   2.532       .  S
Cd890       O892   2.397       .  S
C893        O897   1.264       .  A
C893       C1657   1.482       .  S
O898        C901   1.269       .  A
O898       Cd903   2.486       .  S
C899        O908   1.269       .  A
C899        O904   1.270       .  A
C899       C1636   1.482       .  S
O900        C906   1.273       .  A
O900       Cd903   2.526       .  S
C901        O909   1.264       .  A
C901       C1672   1.472       .  S
C902        O907   1.271       .  A
C902        O905   1.265       .  A
C902       C1645   1.484       .  S
Cd903       O910   2.409       .  S
Cd903       O909   2.392       .  S
Cd903       O908   2.443       .  S
Cd903       O904   2.449       .  S
Cd903       O907   2.506       .  S
Cd903       O905   2.429       .  S
C906        O910   1.263       .  A
C906       C2665   1.482       .  S
O911        C914   1.269       .  A
O911       Cd916   2.474       .  S
C912        O921   1.265       .  A
C912        O917   1.269       .  A
C912       C1621   1.478       .  S
O913        C919   1.270       .  A
O913       Cd916   2.497       .  S
C914        O922   1.265       .  A
C914       C1696   1.486       .  S
C915        O920   1.271       .  A
C915        O918   1.262       .  A
C915       C2296   1.475       .  S
Cd916       O923   2.437       .  S
Cd916       O922   2.425       .  S
Cd916       O921   2.413       .  S
Cd916       O917   2.484       .  S
Cd916       O920   2.526       .  S
Cd916       O918   2.397       .  S
C919        O923   1.265       .  A
C919       C1660   1.483       .  S
O924        C927   1.270       .  A
O924       Cd929   2.474       .  S
C925        O934   1.265       .  A
C925        O930   1.269       .  A
C925       C1624   1.475       .  S
O926        C932   1.273       .  A
O926       Cd929   2.535       .  S
C927        O935   1.267       .  A
C927       C1609   1.483       .  S
C928        O933   1.272       .  A
C928        O931   1.266       .  A
C928       C1648   1.483       .  S
Cd929       O936   2.380       .  S
Cd929       O935   2.425       .  S
Cd929       O934   2.418       .  S
Cd929       O930   2.482       .  S
Cd929       O933   2.499       .  S
Cd929       O931   2.416       .  S
C932        O936   1.262       .  A
C932       C2284   1.479       .  S
O937        C940   1.270       .  A
O937       Cd942   2.482       .  S
C938        O947   1.266       .  A
C938        O943   1.270       .  A
C938       C1573   1.486       .  S
O939        C945   1.271       .  A
O939       Cd942   2.532       .  S
C940        O948   1.265       .  A
C940       C1597   1.477       .  S
C941        O946   1.271       .  A
C941        O944   1.265       .  A
C941       C1585   1.485       .  S
Cd942       O949   2.413       .  S
Cd942       O948   2.432       .  S
Cd942       O947   2.440       .  S
Cd942       O943   2.499       .  S
Cd942       O946   2.505       .  S
Cd942       O944   2.423       .  S
C945        O949   1.264       .  A
C945       C2224   1.493       .  S
O950        C953   1.268       .  A
O950       Cd955   2.482       .  S
C951        O960   1.266       .  A
C951        O956   1.268       .  A
C951       C1600   1.480       .  S
O952        C958   1.272       .  A
O952       Cd955   2.541       .  S
C953        O961   1.267       .  A
C953       C1936   1.484       .  S
C954        O959   1.272       .  A
C954        O957   1.265       .  A
C954       C1564   1.485       .  S
Cd955       O962   2.433       .  S
Cd955       O961   2.431       .  S
Cd955       O960   2.434       .  S
Cd955       O956   2.471       .  S
Cd955       O959   2.515       .  S
Cd955       O957   2.428       .  S
C958        O962   1.261       .  A
C958       C2209   1.490       .  S
O963        C966   1.269       .  A
O963       Cd968   2.465       .  S
C964        O973   1.264       .  A
C964        O969   1.270       .  A
C964       C1549   1.477   1_565  S
O965        C971   1.273       .  A
O965       Cd968   2.542       .  S
C966        O974   1.267       .  A
C966       C1804   1.486       .  S
C967        O972   1.272       .  A
C967        O970   1.265       .  A
C967       C1588   1.486       .  S
Cd968       O975   2.405       .  S
Cd968       O974   2.452       .  S
Cd968       O973   2.421       .  S
Cd968       O969   2.487       .  S
Cd968       O972   2.507       .  S
Cd968       O970   2.432       .  S
C971        O975   1.262       .  A
C971       C2344   1.486       .  S
O976        C979   1.268       .  A
O976       Cd981   2.482       .  S
C977        O986   1.267       .  A
C977        O982   1.267       .  A
C977       C1540   1.494       .  S
O978        C984   1.270       .  A
O978       Cd981   2.542       .  S
C979        O987   1.265       .  A
C979       C1552   1.480       .  S
C980        O985   1.268       .  A
C980        O983   1.265       .  A
C980       C1561   1.491       .  S
Cd981       O988   2.430       .  S
Cd981       O987   2.428       .  S
Cd981       O986   2.453       .  S
Cd981       O982   2.485       .  S
Cd981       O985   2.513       .  S
Cd981       O983   2.457       .  S
C984        O988   1.262       .  A
C984       C2332   1.490       .  S
O989        C992   1.269       .  A
O989       Cd994   2.500       .  S
C990        O999   1.267       .  A
C990        O995   1.268       .  A
C990       C1576   1.486       .  S
O991        C997   1.270       .  A
O991       Cd994   2.525       .  S
C992       O1000   1.264       .  A
C992       C1525   1.478       .  S
C993        O998   1.272       .  A
C993        O996   1.262       .  A
C993       C2272   1.484       .  S
Cd994      O1001   2.445       .  S
Cd994      O1000   2.409       .  S
Cd994       O999   2.451       .  S
Cd994       O995   2.477       .  S
Cd994       O998   2.536       .  S
Cd994       O996   2.400       .  S
C997       O1001   1.265       .  A
C997       C1513   1.489       .  S
O1002      C1005   1.270       .  A
O1002     Cd1007   2.488       .  S
C1003      O1012   1.267       .  A
C1003      O1008   1.270       .  A
C1003      C1864   1.483       .  S
O1004      C1010   1.273       .  A
O1004     Cd1007   2.521       .  S
C1005      O1013   1.266       .  A
C1005      C1528   1.481       .  S
C1006      O1011   1.272       .  A
C1006      O1009   1.266       .  A
C1006      C1501   1.485       .  S
Cd1007     O1014   2.387       .  S
Cd1007     O1013   2.417       .  S
Cd1007     O1012   2.439       .  S
Cd1007     O1008   2.477       .  S
Cd1007     O1011   2.510       .  S
Cd1007     O1009   2.418       .  S
C1010      O1014   1.263       .  A
C1010      C2260   1.479       .  S
O1015      C1018   1.268       .  A
O1015     Cd1020   2.486       .  S
C1016      O1025   1.265       .  A
C1016      O1021   1.269       .  A
C1016      C1489   1.478       .  S
O1017      C1023   1.271       .  A
O1017     Cd1020   2.515       .  S
C1018      O1026   1.266       .  A
C1018      C1765   1.485       .  S
C1019      O1024   1.271       .  A
C1019      O1022   1.263       .  A
C1019      C2536   1.484       .  S
Cd1020     O1027   2.441       .  S
Cd1020     O1026   2.439       .  S
Cd1020     O1025   2.433       .  S
Cd1020     O1021   2.491       .  S
Cd1020     O1024   2.527       .  S
Cd1020     O1022   2.420       .  S
C1023      O1027   1.265       .  A
C1023      C1516   1.487       .  S
O1028      C1031   1.268       .  A
O1028     Cd1033   2.466       .  S
C1029      O1038   1.264       .  A
C1029      O1034   1.266       .  A
C1029      C1492   1.474       .  S
O1030      C1036   1.271       .  A
O1030     Cd1033   2.532       .  S
C1031      O1039   1.268       .  A
C1031      C1480   1.487       .  S
C1032      O1037   1.270       .  A
C1032      O1035   1.265       .  A
C1032      C1504   1.483       .  S
Cd1033     O1040   2.422       .  S
Cd1033     O1039   2.431       .  S
Cd1033     O1038   2.438       .  S
Cd1033     O1034   2.488       .  S
Cd1033     O1037   2.514       .  S
Cd1033     O1035   2.427       .  S
C1036      O1040   1.262       .  A
C1036      C2521   1.484       .  S
O1041      C1044   1.271       .  A
O1041     Cd1046   2.460       .  S
C1042      O1051   1.266       .  A
C1042      O1047   1.268       .  A
C1042      C1441   1.483       .  S
O1043      C1049   1.274       .  A
O1043     Cd1046   2.527       .  S
C1044      O1052   1.267       .  A
C1044      C1468   1.474       .  S
C1045      O1050   1.273       .  A
C1045      O1048   1.264       .  A
C1045      C1456   1.483       .  S
Cd1046     O1053   2.415       .  S
Cd1046     O1052   2.390       .  S
Cd1046     O1051   2.436       .  S
Cd1046     O1047   2.463       .  S
Cd1046     O1050   2.540       .  S
Cd1046     O1048   2.409       .  S
C1049      O1053   1.263       .  A
C1049      C2416   1.484       .  S
O1054      C1057   1.272       .  A
O1054     Cd1059   2.452       .  S
C1055      O1064   1.264   1_556  A
C1055      O1060   1.271   1_556  A
C1055      C1465   1.477       .  S
O1056      C1062   1.275       .  A
O1056     Cd1059   2.525       .  S
C1057      O1065   1.269       .  A
C1057      C1900   1.478       .  S
C1058      O1063   1.274       .  A
C1058      O1061   1.264       .  A
C1058      C1432   1.492       .  S
Cd1059     O1066   2.393       .  S
Cd1059     O1065   2.420       .  S
Cd1059     O1064   2.392       .  S
Cd1059     O1060   2.480       .  S
Cd1059     O1063   2.519       .  S
Cd1059     O1061   2.399       .  S
C1062      O1066   1.264       .  A
C1062      C2404   1.480       .  S
O1067      C1070   1.269       .  A
O1067     Cd1072   2.447       .  S
C1068      O1077   1.266       .  A
C1068      O1073   1.270       .  A
C1068      C1417   1.475       .  S
O1069      C1075   1.274       .  A
O1069     Cd1072   2.512       .  S
C1070      O1078   1.268       .  A
C1070      C1633   1.481       .  S
C1071      O1076   1.272       .  A
C1071      O1074   1.264       .  A
C1071      C1453   1.483       .  S
Cd1072     O1079   2.400       .  S
Cd1072     O1078   2.434       .  S
Cd1072     O1077   2.416       .  S
Cd1072     O1073   2.472       .  S
Cd1072     O1076   2.522       .  S
Cd1072     O1074   2.409       .  S
C1075      O1079   1.263       .  A
C1075      C2584   1.481       .  S
O1080      C1083   1.270   1_554  A
O1080     Cd1085   2.473       .  S
C1081      O1090   1.267       .  A
C1081      O1086   1.270       .  A
C1081      C1477   1.487       .  S
O1082      C1088   1.274       .  A
O1082     Cd1085   2.525       .  S
C1083      O1091   1.265   1_556  A
C1083      C1420   1.471       .  S
C1084      O1089   1.272       .  A
C1084      O1087   1.266       .  A
C1084      C1429   1.497       .  S
Cd1085     O1092   2.383       .  S
Cd1085     O1091   2.395       .  S
Cd1085     O1090   2.432       .  S
Cd1085     O1086   2.468       .  S
Cd1085     O1089   2.517       .  S
Cd1085     O1087   2.405       .  S
C1088      O1092   1.263       .  A
C1088      C2572   1.483       .  S
O1093      C1096   1.267       .  A
O1093     Cd1098   2.473       .  S
C1094      O1103   1.266       .  A
C1094      O1099   1.269       .  A
C1094      C1405   1.481       .  S
O1095      C1101   1.270       .  A
O1095     Cd1098   2.531       .  S
C1096      O1104   1.266       .  A
C1096      C1444   1.483       .  S
C1097      O1102   1.270       .  A
C1097      O1100   1.265       .  A
C1097      C1393   1.493       .  S
Cd1098     O1105   2.442       .  S
Cd1098     O1104   2.431       .  S
Cd1098     O1103   2.402       .  S
Cd1098     O1099   2.481       .  S
Cd1098     O1102   2.513       .  S
Cd1098     O1100   2.442       .  S
C1101      O1105   1.263       .  A
C1101      C2464   1.492       .  S
O1106      C1109   1.268       .  A
O1106     Cd1111   2.475       .  S
C1107      O1116   1.265       .  A
C1107      O1112   1.270       .  A
C1107      C1408   1.481       .  S
O1108      C1114   1.269       .  A
O1108     Cd1111   2.503       .  S
C1109      O1117   1.267       .  A
C1109      C2017   1.486       .  S
C1110      O1115   1.271       .  A
C1110      O1113   1.262       .  A
C1110      C2452   1.488       .  S
Cd1111     O1118   2.437       .  S
Cd1111     O1117   2.441       .  S
Cd1111     O1116   2.419       .  S
Cd1111     O1112   2.484       .  S
Cd1111     O1115   2.538       .  S
Cd1111     O1113   2.426       .  S
C1114      O1118   1.264       .  A
C1114      C1381   1.488       .  S
O1119      C1122   1.270       .  A
O1119     Cd1124   2.474       .  S
C1120      O1129   1.267       .  A
C1120      O1125   1.269       .  A
C1120      C1612   1.485       .  S
O1121      C1127   1.273       .  A
O1121     Cd1124   2.545       .  S
C1122      O1130   1.267       .  A
C1122      C1369   1.489       .  S
C1123      O1128   1.273       .  A
C1123      O1126   1.265       .  A
C1123      C1396   1.488       .  S
Cd1124     O1131   2.417       .  S
Cd1124     O1130   2.413       .  S
Cd1124     O1129   2.437       .  S
Cd1124     O1125   2.475       .  S
Cd1124     O1128   2.517       .  S
Cd1124     O1126   2.426       .  S
C1127      O1131   1.262       .  A
C1127      C2200   1.485       .  S
O1132      C1135   1.269       .  A
O1132     Cd1137   2.483       .  S
C1133      O1142   1.262       .  A
C1133      O1138   1.273       .  A
C1133      C1372   1.489       .  S
O1134      C1140   1.272       .  A
O1134     Cd1137   2.519       .  S
C1135      O1143   1.267       .  A
C1135      C1360   1.490       .  S
C1136      O1141   1.270       .  A
C1136      O1139   1.266       .  A
C1136      C1384   1.480       .  S
Cd1137     O1144   2.405       .  S
Cd1137     O1143   2.427       .  S
Cd1137     O1142   2.392       .  S
Cd1137     O1138   2.500       .  S
Cd1137     O1141   2.486       .  S
Cd1137     O1139   2.433       .  S
C1140      O1144   1.263       .  A
C1140      C2188   1.480       .  S
O1145      C1148   1.272       .  A
O1145     Cd1150   2.486       .  S
C1146      O1155   1.267       .  A
C1146      O1151   1.272       .  A
C1146      C1345   1.486       .  S
O1147      C1153   1.274       .  A
O1147     Cd1150   2.532       .  S
C1148      O1156   1.266       .  A
C1148      C1324   1.492       .  S
C1149      O1154   1.272       .  A
C1149      O1152   1.266       .  A
C1149      C1336   1.491       .  S
Cd1150     O1157   2.394       .  S
Cd1150     O1156   2.445       .  S
Cd1150     O1155   2.430       .  S
Cd1150     O1151   2.488       .  S
Cd1150     O1154   2.498       .  S
Cd1150     O1152   2.421       .  S
C1153      O1157   1.264       .  A
C1153      C2608   1.483       .  S
O1158      C1161   1.271       .  A
O1158     Cd1163   2.489       .  S
C1159      O1168   1.266       .  A
C1159      O1164   1.272       .  A
C1159      C1348   1.484   1_554  S
O1160      C1166   1.273       .  A
O1160     Cd1163   2.532       .  S
C1161      O1169   1.267       .  A
C1161      C1972   1.489       .  S
C1162      O1167   1.275       .  A
C1162      O1165   1.263       .  A
C1162      C2596   1.488       .  S
Cd1163     O1170   2.428       .  S
Cd1163     O1169   2.449       .  S
Cd1163     O1168   2.420       .  S
Cd1163     O1164   2.496       .  S
Cd1163     O1167   2.541       .  S
Cd1163     O1165   2.387       .  S
C1166      O1170   1.267       .  A
C1166      C1309   1.499       .  S
O1171      C1174   1.269       .  A
O1171     Cd1176   2.478       .  S
C1172      O1181   1.268       .  A
C1172      O1177   1.267       .  A
C1172      C1720   1.491       .  S
O1173      C1179   1.272       .  A
O1173     Cd1176   2.537       .  S
C1174      O1182   1.265       .  A
C1174      C1297   1.475       .  S
C1175      O1180   1.272       .  A
C1175      O1178   1.265       .  A
C1175      C1333   1.485       .  S
Cd1176     O1183   2.388       .  S
Cd1176     O1182   2.411       .  S
Cd1176     O1181   2.449       .  S
Cd1176     O1177   2.462       .  S
Cd1176     O1180   2.495       .  S
Cd1176     O1178   2.425       .  S
C1179      O1183   1.262       .  A
C1179      C2392   1.476       .  S
O1184      C1187   1.271       .  A
O1184     Cd1189   2.479       .  S
C1185      O1194   1.265   1_556  A
C1185      O1190   1.270   1_556  A
C1185      C1300   1.476       .  S
O1186      C1192   1.273       .  A
O1186     Cd1189   2.517       .  S
C1187      O1195   1.267       .  A
C1187      C1537   1.491       .  S
C1188      O1193   1.272       .  A
C1188      O1191   1.265       .  A
C1188      C1312   1.494       .  S
Cd1189     O1196   2.410       .  S
Cd1189     O1195   2.437       .  S
Cd1189     O1194   2.408       .  S
Cd1189     O1190   2.489       .  S
Cd1189     O1193   2.531       .  S
Cd1189     O1191   2.431       .  S
C1192      O1196   1.264       .  A
C1192      C2380   1.481       .  S
O1197      C1200   1.269       .  A
O1197     Cd1202   2.509       .  S
C1198      O1207   1.266       .  A
C1198      O1203   1.269       .  A
C1198      C2053   1.493       .  S
O1199      C1205   1.270       .  A
O1199     Cd1202   2.523       .  S
C1200      O1208   1.265       .  A
C1200      C1285   1.487       .  S
C1201      O1206   1.272       .  A
C1201      O1204   1.263       .  A
C1201      C2641   1.486       .  S
Cd1202     O1209   2.458       .  S
Cd1202     O1208   2.439       .  S
Cd1202     O1207   2.462       .  S
Cd1202     O1203   2.479       .  S
Cd1202     O1206   2.539       .  S
Cd1202     O1204   2.425       .  S
C1205      O1209   1.264       .  A
C1205      C1273   1.489       .  S
O1210      C1213   1.272       .  A
O1210     Cd1215   2.516       .  S
C1211      O1220   1.267       .  A
C1211      O1216   1.271       .  A
C1211      C1321   1.490       .  S
O1212      C1218   1.271       .  A
O1212     Cd1215   2.524       .  S
C1213      O1221   1.264       .  A
C1213      C1288   1.484       .  S
C1214      O1219   1.271       .  A
C1214      O1217   1.265       .  A
C1214      C1261   1.489       .  S
Cd1215     O1222   2.429       .  S
Cd1215     O1221   2.413       .  S
Cd1215     O1220   2.442       .  S
Cd1215     O1216   2.489       .  S
Cd1215     O1219   2.517       .  S
Cd1215     O1217   2.439       .  S
C1218      O1222   1.264       .  A
C1218      C2656   1.483       .  S
O1223      C1226   1.270       .  A
O1223     Cd1228   2.474       .  S
C1224      O1233   1.265       .  A
C1224      O1229   1.269       .  A
C1224      C1249   1.476       .  S
O1225      C1231   1.271       .  A
O1225     Cd1228   2.515       .  S
C1226      O1234   1.266       .  A
C1226      C1681   1.482       .  S
C1227      O1232   1.268       .  A
C1227      O1230   1.267       .  A
C1227      C1264   1.493       .  S
Cd1228     O1235   2.403       .  S
Cd1228     O1234   2.434       .  S
Cd1228     O1233   2.425       .  S
Cd1228     O1229   2.485       .  S
Cd1228     O1232   2.495       .  S
Cd1228     O1230   2.462       .  S
C1231      O1235   1.262       .  A
C1231      C2152   1.478       .  S
O1236      C1239   1.268       .  A
O1236     Cd1241   2.493       .  S
C1237      O1246   1.266       .  A
C1237      O1242   1.268       .  A
C1237      C1357   1.483       .  S
O1238      C1244   1.269       .  A
O1238     Cd1241   2.520       .  S
C1239      O1247   1.264       .  A
C1239      C1252   1.478       .  S
C1240      O1245   1.269       .  A
C1240      O1243   1.265       .  A
C1240      C1276   1.485       .  S
Cd1241     O1248   2.430       .  S
Cd1241     O1247   2.426       .  S
Cd1241     O1246   2.444       .  S
Cd1241     O1242   2.477       .  S
Cd1241     O1245   2.507       .  S
Cd1241     O1243   2.443       .  S
C1244      O1248   1.262       .  A
C1244      C2140   1.486       .  S
C1249      C1250   1.403       .  A
C1249      C1254   1.414       .  A
C1250      C1251   1.397       .  A
C1250      H1259   1.084       .  S
C1251      C1252   1.413   1_655  A
C1251      S1255   1.804   1_655  S
C1252      C1253   1.404   1_455  A
C1253      C1254   1.402       .  A
C1253      H1260   1.084       .  S
C1254      S1256   1.802       .  S
S1255      H1258   1.407       .  S
S1256      H1257   1.407       .  S
C1261      C1262   1.405       .  A
C1261      C1266   1.414       .  A
C1262      C1263   1.405       .  A
C1262      H1271   1.084       .  S
C1263      C1264   1.418       .  A
C1263      S1267   1.800       .  S
C1264      C1265   1.406       .  A
C1265      C1266   1.405       .  A
C1265      H1272   1.083       .  S
C1266      S1268   1.808       .  S
S1267      H1270   1.407       .  S
S1268      H1269   1.407       .  S
C1273      C1274   1.406       .  A
C1273      C1278   1.417       .  A
C1274      C1275   1.402       .  A
C1274      H1283   1.084       .  S
C1275      C1276   1.413       .  A
C1275      S1279   1.804       .  S
C1276      C1277   1.405       .  A
C1277      C1278   1.405       .  A
C1277      H1284   1.084       .  S
C1278      S1280   1.801       .  S
S1279      H1282   1.407       .  S
S1280      H1281   1.407       .  S
C1285      C1286   1.404   1_455  A
C1285      C1290   1.417   1_455  A
C1286      C1287   1.397       .  A
C1286      H1295   1.084       .  S
C1287      C1288   1.414       .  A
C1287      S1291   1.805       .  S
C1288      C1289   1.405       .  A
C1289      C1290   1.406       .  A
C1289      H1296   1.084       .  S
C1290      S1292   1.800   1_655  S
S1291      H1294   1.408       .  S
S1292      H1293   1.407       .  S
C1297      C1298   1.405       .  A
C1297      C1302   1.412       .  A
C1298      C1299   1.403       .  A
C1298      H1307   1.084       .  S
C1299      C1300   1.414       .  A
C1299      S1303   1.802       .  S
C1300      C1301   1.403       .  A
C1301      C1302   1.394       .  A
C1301      H1308   1.084       .  S
C1302      S1304   1.805       .  S
S1303      H1306   1.407       .  S
S1304      H1305   1.408       .  S
C1309      C1310   1.406       .  A
C1309      C1314   1.419       .  A
C1310      C1311   1.403       .  A
C1310      H1319   1.082       .  S
C1311      C1312   1.415       .  A
C1311      S1315   1.810       .  S
C1312      C1313   1.407       .  A
C1313      C1314   1.410       .  A
C1313      H1320   1.084       .  S
C1314      S1316   1.799       .  S
S1315      H1318   1.406       .  S
S1316      H1317   1.407       .  S
C1321      C1322   1.405       .  A
C1321      C1326   1.414       .  A
C1322      C1323   1.404       .  A
C1322      H1331   1.082       .  S
C1323      C1324   1.419       .  A
C1323      S1327   1.809       .  S
C1324      C1325   1.406       .  A
C1325      C1326   1.403       .  A
C1325      H1332   1.084       .  S
C1326      S1328   1.801       .  S
S1327      H1330   1.406       .  S
S1328      H1329   1.408       .  S
C1333      C1334   1.405       .  A
C1333      C1338   1.415       .  A
C1334      C1335   1.404       .  A
C1334      H1343   1.084       .  S
C1335      C1336   1.417       .  A
C1335      S1339   1.798       .  S
C1336      C1337   1.407       .  A
C1337      C1338   1.398       .  A
C1337      H1344   1.084       .  S
C1338      S1340   1.805       .  S
S1339      H1342   1.407       .  S
S1340      H1341   1.407       .  S
C1345      C1346   1.405       .  A
C1345      C1350   1.416       .  A
C1346      C1347   1.399       .  A
C1346      H1355   1.084       .  S
C1347      C1348   1.414       .  A
C1347      S1351   1.805       .  S
C1348      C1349   1.405       .  A
C1349      C1350   1.405       .  A
C1349      H1356   1.084       .  S
C1350      S1352   1.801       .  S
S1351      H1354   1.408       .  S
S1352      H1353   1.408       .  S
C1357      C1358   1.404       .  A
C1357      C1362   1.412       .  A
C1358      C1359   1.402       .  A
C1358      H1367   1.084       .  S
C1359      C1360   1.417       .  A
C1359      S1363   1.800       .  S
C1360      C1361   1.407       .  A
C1361      C1362   1.402       .  A
C1361      H1368   1.082       .  S
C1362      S1364   1.809       .  S
S1363      H1366   1.407       .  S
S1364      H1365   1.407       .  S
C1369      C1370   1.404   1_565  A
C1369      C1374   1.417   1_565  A
C1370      C1371   1.394       .  A
C1370      H1379   1.084       .  S
C1371      C1372   1.419       .  A
C1371      S1375   1.802       .  S
C1372      C1373   1.407       .  A
C1373      C1374   1.404       .  A
C1373      H1380   1.083       .  S
C1374      S1376   1.800   1_545  S
S1375      H1378   1.408       .  S
S1376      H1377   1.408       .  S
C1381      C1382   1.407       .  A
C1381      C1386   1.417       .  A
C1382      C1383   1.404       .  A
C1382      H1391   1.083       .  S
C1383      C1384   1.411       .  A
C1383      S1387   1.808       .  S
C1384      C1385   1.403       .  A
C1385      C1386   1.403       .  A
C1385      H1392   1.084       .  S
C1386      S1388   1.799       .  S
S1387      H1390   1.407       .  S
S1388      H1389   1.407       .  S
C1393      C1394   1.406       .  A
C1393      C1398   1.417       .  A
C1394      C1395   1.404       .  A
C1394      H1403   1.083       .  S
C1395      C1396   1.414       .  A
C1395      S1399   1.810       .  S
C1396      C1397   1.405       .  A
C1397      C1398   1.406       .  A
C1397      H1404   1.084       .  S
C1398      S1400   1.798       .  S
S1399      H1402   1.407       .  S
S1400      H1401   1.407       .  S
C1405      C1406   1.403   1_565  A
C1405      C1410   1.414   1_565  A
C1406      C1407   1.398       .  A
C1406      H1415   1.083       .  S
C1407      C1408   1.414       .  A
C1407      S1411   1.810       .  S
C1408      C1409   1.405       .  A
C1409      C1410   1.402       .  A
C1409      H1416   1.084       .  S
C1410      S1412   1.800       .  S
S1411      H1414   1.407       .  S
S1412      H1413   1.407   1_545  S
C1417      C1418   1.403       .  A
C1417      C1422   1.414       .  A
C1418      C1419   1.394       .  A
C1418      H1427   1.084       .  S
C1419      C1420   1.413       .  A
C1419      S1423   1.806       .  S
C1420      C1421   1.403       .  A
C1421      C1422   1.402       .  A
C1421      H1428   1.084       .  S
C1422      S1424   1.801       .  S
S1423      H1426   1.407       .  S
S1424      H1425   1.407       .  S
C1429      C1430   1.405       .  A
C1429      C1434   1.419       .  A
C1430      C1431   1.393       .  A
C1430      H1439   1.084       .  S
C1431      C1432   1.418       .  A
C1431      S1435   1.805       .  S
C1432      C1433   1.407       .  A
C1433      C1434   1.410       .  A
C1433      H1440   1.083       .  S
C1434      S1436   1.799       .  S
S1435      H1438   1.408       .  S
S1436      H1437   1.407       .  S
C1441      C1442   1.406       .  A
C1441      C1446   1.414       .  A
C1442      C1443   1.400       .  A
C1442      H1451   1.084       .  S
C1443      C1444   1.416       .  A
C1443      S1447   1.801       .  S
C1444      C1445   1.405       .  A
C1445      C1446   1.397       .  A
C1445      H1452   1.084       .  S
C1446      S1448   1.803       .  S
S1447      H1450   1.408       .  S
S1448      H1449   1.408       .  S
C1453      C1454   1.401       .  A
C1453      C1458   1.417       .  A
C1454      C1455   1.393       .  A
C1454      H1463   1.085       .  S
C1455      C1456   1.413       .  A
C1455      S1459   1.804       .  S
C1456      C1457   1.407       .  A
C1457      C1458   1.412       .  A
C1457      H1464   1.083       .  S
C1458      S1460   1.802       .  S
S1459      H1462   1.406       .  S
S1460      H1461   1.406       .  S
C1465      C1466   1.404       .  A
C1465      C1470   1.414       .  A
C1466      C1467   1.400       .  A
C1466      H1475   1.084       .  S
C1467      C1468   1.413       .  A
C1467      S1471   1.802       .  S
C1468      C1469   1.402       .  A
C1469      C1470   1.396       .  A
C1469      H1476   1.082       .  S
C1470      S1472   1.811       .  S
S1471      H1474   1.407       .  S
S1472      H1473   1.407       .  S
C1477      C1478   1.407       .  A
C1477      C1482   1.417       .  A
C1478      C1479   1.403       .  A
C1478      H1487   1.084       .  S
C1479      C1480   1.416       .  A
C1479      S1483   1.802       .  S
C1480      C1481   1.404       .  A
C1481      C1482   1.395       .  A
C1481      H1488   1.084       .  S
C1482      S1484   1.803       .  S
S1483      H1486   1.407       .  S
S1484      H1485   1.408       .  S
C1489      C1490   1.404       .  A
C1489      C1494   1.412       .  A
C1490      C1491   1.402       .  A
C1490      H1499   1.084       .  S
C1491      C1492   1.412   1_655  A
C1491      S1495   1.801   1_655  S
C1492      C1493   1.402   1_455  A
C1493      C1494   1.402       .  A
C1493      H1500   1.083   1_655  S
C1494      S1496   1.808       .  S
S1495      H1498   1.405       .  S
S1496      H1497   1.407       .  S
C1501      C1502   1.404       .  A
C1501      C1506   1.416       .  A
C1502      C1503   1.397       .  A
C1502      H1511   1.084       .  S
C1503      C1504   1.413       .  A
C1503      S1507   1.804       .  S
C1504      C1505   1.406       .  A
C1505      C1506   1.407       .  A
C1505      H1512   1.084       .  S
C1506      S1508   1.801       .  S
S1507      H1510   1.407       .  S
S1508      H1509   1.407       .  S
C1513      C1514   1.406       .  A
C1513      C1518   1.415       .  A
C1514      C1515   1.407       .  A
C1514      H1523   1.084       .  S
C1515      C1516   1.416       .  A
C1515      S1519   1.801       .  S
C1516      C1517   1.404       .  A
C1517      C1518   1.400       .  A
C1517      H1524   1.084       .  S
C1518      S1520   1.804       .  S
S1519      H1522   1.407       .  S
S1520      H1521   1.407       .  S
C1525      C1526   1.405       .  A
C1525      C1530   1.411       .  A
C1526      C1527   1.404       .  A
C1526      H1535   1.084       .  S
C1527      C1528   1.415   1_655  A
C1527      S1531   1.799   1_655  S
C1528      C1529   1.403   1_455  A
C1529      C1530   1.399       .  A
C1529      H1536   1.083   1_655  S
C1530      S1532   1.809       .  S
S1531      H1534   1.407       .  S
S1532      H1533   1.407       .  S
C1537      C1538   1.406       .  A
C1537      C1542   1.417       .  A
C1538      C1539   1.404       .  A
C1538      H1547   1.084       .  S
C1539      C1540   1.419       .  A
C1539      S1543   1.800       .  S
C1540      C1541   1.406       .  A
C1541      C1542   1.399       .  A
C1541      H1548   1.084       .  S
C1542      S1544   1.803       .  S
S1543      H1546   1.408       .  S
S1544      H1545   1.408       .  S
C1549      C1550   1.403       .  A
C1549      C1554   1.412       .  A
C1550      C1551   1.401       .  A
C1550      H1559   1.084       .  S
C1551      C1552   1.415       .  A
C1551      S1555   1.799       .  S
C1552      C1553   1.404       .  A
C1553      C1554   1.401       .  A
C1553      H1560   1.083       .  S
C1554      S1556   1.808   1_545  S
S1555      H1558   1.407       .  S
S1556      H1557   1.407   1_565  S
C1561      C1562   1.405       .  A
C1561      C1566   1.418       .  A
C1562      C1563   1.404       .  A
C1562      H1571   1.083       .  S
C1563      C1564   1.413       .  A
C1563      S1567   1.808       .  S
C1564      C1565   1.404       .  A
C1565      C1566   1.406       .  A
C1565      H1572   1.084       .  S
C1566      S1568   1.799       .  S
S1567      H1570   1.407       .  S
S1568      H1569   1.406       .  S
C1573      C1574   1.405       .  A
C1573      C1578   1.415       .  A
C1574      C1575   1.398       .  A
C1574      H1583   1.084       .  S
C1575      C1576   1.415       .  A
C1575      S1579   1.804       .  S
C1576      C1577   1.407       .  A
C1577      C1578   1.405       .  A
C1577      H1584   1.084       .  S
C1578      S1580   1.801       .  S
S1579      H1582   1.408       .  S
S1580      H1581   1.407       .  S
C1585      C1586   1.406       .  A
C1585      C1590   1.414       .  A
C1586      C1587   1.406       .  A
C1586      H1595   1.084       .  S
C1587      C1588   1.417       .  A
C1587      S1591   1.802       .  S
C1588      C1589   1.404       .  A
C1589      C1590   1.399       .  A
C1589      H1596   1.084       .  S
C1590      S1592   1.804       .  S
S1591      H1594   1.405       .  S
S1592      H1593   1.407       .  S
C1597      C1598   1.401   1_565  A
C1597      C1602   1.412   1_565  A
C1598      C1599   1.399       .  A
C1598      H1607   1.084       .  S
C1599      C1600   1.415       .  A
C1599      S1603   1.800       .  S
C1600      C1601   1.405       .  A
C1601      C1602   1.403       .  A
C1601      H1608   1.083       .  S
C1602      S1604   1.808   1_545  S
S1603      H1606   1.407       .  S
S1604      H1605   1.407   1_565  S
C1609      C1610   1.406       .  A
C1609      C1614   1.416       .  A
C1610      C1611   1.404       .  A
C1610      H1619   1.084       .  S
C1611      C1612   1.416       .  A
C1611      S1615   1.802       .  S
C1612      C1613   1.403       .  A
C1613      C1614   1.396       .  A
C1613      H1620   1.084       .  S
C1614      S1616   1.804       .  S
S1615      H1618   1.408       .  S
S1616      H1617   1.408       .  S
C1621      C1622   1.403       .  A
C1621      C1626   1.416       .  A
C1622      C1623   1.395       .  A
C1622      H1631   1.084       .  S
C1623      C1624   1.412   1_655  A
C1623      S1627   1.804   1_655  S
C1624      C1625   1.404   1_455  A
C1625      C1626   1.403       .  A
C1625      H1632   1.084   1_655  S
C1626      S1628   1.802       .  S
S1627      H1630   1.407       .  S
S1628      H1629   1.407       .  S
C1633      C1634   1.405       .  A
C1633      C1638   1.415       .  A
C1634      C1635   1.400       .  A
C1634      H1643   1.084       .  S
C1635      C1636   1.414       .  A
C1635      S1639   1.803       .  S
C1636      C1637   1.404       .  A
C1637      C1638   1.398       .  A
C1637      H1644   1.084       .  S
C1638      S1640   1.802       .  S
S1639      H1642   1.407       .  S
S1640      H1641   1.408       .  S
C1645      C1646   1.404       .  A
C1645      C1650   1.415       .  A
C1646      C1647   1.398       .  A
C1646      H1655   1.084       .  S
C1647      C1648   1.415       .  A
C1647      S1651   1.805       .  S
C1648      C1649   1.405       .  A
C1649      C1650   1.405       .  A
C1649      H1656   1.084       .  S
C1650      S1652   1.798       .  S
S1651      H1654   1.407       .  S
S1652      H1653   1.406       .  S
C1657      C1658   1.403       .  A
C1657      C1662   1.414       .  A
C1658      C1659   1.398       .  A
C1658      H1667   1.084       .  S
C1659      C1660   1.413       .  A
C1659      S1663   1.804       .  S
C1660      C1661   1.406       .  A
C1661      C1662   1.406       .  A
C1661      H1668   1.084       .  S
C1662      S1664   1.802       .  S
S1663      H1666   1.407       .  S
S1664      H1665   1.407       .  S
C1669      C1670   1.405       .  A
C1669      C1674   1.412       .  A
C1670      C1671   1.403       .  A
C1670      H1679   1.084       .  S
C1671      C1672   1.413   1_655  A
C1671      S1675   1.801   1_655  S
C1672      C1673   1.401   1_455  A
C1673      C1674   1.390       .  A
C1673      H1680   1.084   1_655  S
C1674      S1676   1.805       .  S
S1675      H1678   1.407       .  S
S1676      H1677   1.408       .  S
C1681      C1682   1.404       .  A
C1681      C1686   1.416       .  A
C1682      C1683   1.402       .  A
C1682      H1691   1.084       .  S
C1683      C1684   1.416       .  A
C1683      S1687   1.801       .  S
C1684      C1685   1.404       .  A
C1685      C1686   1.398       .  A
C1685      H1692   1.084       .  S
C1686      S1688   1.805       .  S
S1687      H1690   1.407       .  S
S1688      H1689   1.408       .  S
C1693      C1694   1.406       .  A
C1693      C1698   1.417       .  A
C1694      C1695   1.400       .  A
C1694      H1703   1.082       .  S
C1695      C1696   1.416       .  A
C1695      S1699   1.810       .  S
C1696      C1697   1.406       .  A
C1697      C1698   1.401       .  A
C1697      H1704   1.084       .  S
C1698      S1700   1.801       .  S
S1699      H1702   1.407       .  S
S1700      H1701   1.408       .  S
C1705      C1706   1.402       .  A
C1705      C1710   1.413       .  A
C1706      C1707   1.399       .  A
C1706      H1715   1.084       .  S
C1707      C1708   1.415       .  A
C1707      S1711   1.799       .  S
C1708      C1709   1.404       .  A
C1709      C1710   1.401       .  A
C1709      H1716   1.083       .  S
C1710      S1712   1.810       .  S
S1711      H1714   1.407       .  S
S1712      H1713   1.407       .  S
C1717      C1718   1.407       .  A
C1717      C1722   1.418       .  A
C1718      C1719   1.402       .  A
C1718      H1727   1.083       .  S
C1719      C1720   1.417       .  A
C1719      S1723   1.801       .  S
C1720      C1721   1.406       .  A
C1721      C1722   1.402       .  A
C1721      H1728   1.082       .  S
C1722      S1724   1.809       .  S
S1723      H1726   1.408       .  S
S1724      H1725   1.407       .  S
C1729      C1730   1.403       .  A
C1729      C1734   1.415       .  A
C1730      C1731   1.399       .  A
C1730      H1739   1.084       .  S
C1731      C1732   1.414       .  A
C1731      S1735   1.803       .  S
C1732      C1733   1.405       .  A
C1733      C1734   1.404       .  A
C1733      H1740   1.084       .  S
C1734      S1736   1.803       .  S
S1735      H1738   1.407       .  S
S1736      H1737   1.407       .  S
C1741      C1742   1.408       .  A
C1741      C1746   1.418       .  A
C1742      C1743   1.401       .  A
C1742      H1751   1.084       .  S
C1743      C1744   1.414       .  A
C1743      S1747   1.804       .  S
C1744      C1745   1.404       .  A
C1745      C1746   1.405       .  A
C1745      H1752   1.084       .  S
C1746      S1748   1.799       .  S
S1747      H1750   1.407       .  S
S1748      H1749   1.407       .  S
C1753      C1754   1.403   1_565  A
C1753      C1758   1.411   1_565  A
C1754      C1755   1.402       .  A
C1754      H1763   1.084   1_545  S
C1755      C1756   1.416       .  A
C1755      S1759   1.799       .  S
C1756      C1757   1.406       .  A
C1757      C1758   1.396       .  A
C1757      H1764   1.084       .  S
C1758      S1760   1.805   1_545  S
S1759      H1762   1.407       .  S
S1760      H1761   1.407       .  S
C1765      C1766   1.404       .  A
C1765      C1770   1.416       .  A
C1766      C1767   1.395       .  A
C1766      H1775   1.084       .  S
C1767      C1768   1.415       .  A
C1767      S1771   1.805       .  S
C1768      C1769   1.405       .  A
C1769      C1770   1.405       .  A
C1769      H1776   1.084       .  S
C1770      S1772   1.801       .  S
S1771      H1774   1.406       .  S
S1772      H1773   1.407       .  S
C1777      C1778   1.408       .  A
C1777      C1782   1.420       .  A
C1778      C1779   1.402       .  A
C1778      H1787   1.084       .  S
C1779      C1780   1.414       .  A
C1779      S1783   1.802       .  S
C1780      C1781   1.403       .  A
C1781      C1782   1.400       .  A
C1781      H1788   1.082       .  S
C1782      S1784   1.811       .  S
S1783      H1786   1.408       .  S
S1784      H1785   1.406       .  S
C1789      C1790   1.406       .  A
C1789      C1794   1.415       .  A
C1790      C1791   1.402       .  A
C1790      H1799   1.083       .  S
C1791      C1792   1.411       .  A
C1791      S1795   1.808       .  S
C1792      C1793   1.404       .  A
C1793      C1794   1.403       .  A
C1793      H1800   1.084       .  S
C1794      S1796   1.799       .  S
S1795      H1798   1.407       .  S
S1796      H1797   1.407       .  S
C1801      C1802   1.406       .  A
C1801      C1806   1.417       .  A
C1802      C1803   1.400       .  A
C1802      H1811   1.084       .  S
C1803      C1804   1.415       .  A
C1803      S1807   1.802       .  S
C1804      C1805   1.405       .  A
C1805      C1806   1.401       .  A
C1805      H1812   1.084       .  S
C1806      S1808   1.801       .  S
S1807      H1810   1.408       .  S
S1808      H1809   1.408       .  S
C1813      C1814   1.404       .  A
C1813      C1818   1.415       .  A
C1814      C1815   1.404       .  A
C1814      H1823   1.083       .  S
C1815      C1816   1.415       .  A
C1815      S1819   1.809       .  S
C1816      C1817   1.405       .  A
C1817      C1818   1.404       .  A
C1817      H1824   1.084       .  S
C1818      S1820   1.799       .  S
S1819      H1822   1.407       .  S
S1820      H1821   1.407       .  S
C1825      C1826   1.405       .  A
C1825      C1830   1.417       .  A
C1826      C1827   1.401       .  A
C1826      H1835   1.084       .  S
C1827      C1828   1.416       .  A
C1827      S1831   1.802       .  S
C1828      C1829   1.404       .  A
C1829      C1830   1.399       .  A
C1829      H1836   1.084       .  S
C1830      S1832   1.803       .  S
S1831      H1834   1.407       .  S
S1832      H1833   1.408       .  S
C1837      C1838   1.403       .  A
C1837      C1842   1.416       .  A
C1838      C1839   1.392       .  A
C1838      H1847   1.084       .  S
C1839      C1840   1.414       .  A
C1839      S1843   1.805       .  S
C1840      C1841   1.408       .  A
C1841      C1842   1.413       .  A
C1841      H1848   1.083       .  S
C1842      S1844   1.801       .  S
S1843      H1846   1.406       .  S
S1844      H1845   1.407       .  S
C1849      C1850   1.404       .  A
C1849      C1854   1.415       .  A
C1850      C1851   1.401       .  A
C1850      H1859   1.084       .  S
C1851      C1852   1.414       .  A
C1851      S1855   1.802       .  S
C1852      C1853   1.403       .  A
C1853      C1854   1.397       .  A
C1853      H1860   1.084       .  S
C1854      S1856   1.805       .  S
S1855      H1858   1.407       .  S
S1856      H1857   1.408       .  S
C1861      C1862   1.404       .  A
C1861      C1866   1.416       .  A
C1862      C1863   1.398       .  A
C1862      H1871   1.084       .  S
C1863      C1864   1.415       .  A
C1863      S1867   1.805       .  S
C1864      C1865   1.405       .  A
C1865      C1866   1.404       .  A
C1865      H1872   1.084       .  S
C1866      S1868   1.802       .  S
S1867      H1870   1.408       .  S
S1868      H1869   1.407       .  S
C1873      C1874   1.406   1_565  A
C1873      C1878   1.413   1_565  A
C1874      C1875   1.403       .  A
C1874      H1883   1.084   1_545  S
C1875      C1876   1.413       .  A
C1875      S1879   1.802       .  S
C1876      C1877   1.403       .  A
C1877      C1878   1.395       .  A
C1877      H1884   1.082       .  S
C1878      S1880   1.804       .  S
S1879      H1882   1.407       .  S
S1880      H1881   1.408   1_545  S
C1885      C1886   1.408       .  A
C1885      C1890   1.413       .  A
C1886      C1887   1.415       .  A
C1886      H1895   1.083       .  S
C1887      C1888   1.417       .  A
C1887      S1891   1.801       .  S
C1888      C1889   1.401       .  A
C1889      C1890   1.393       .  A
C1889      H1896   1.085       .  S
C1890      S1892   1.803       .  S
S1891      H1894   1.406       .  S
S1892      H1893   1.406       .  S
C1897      C1898   1.404       .  A
C1897      C1902   1.415       .  A
C1898      C1899   1.396       .  A
C1898      H1907   1.084       .  S
C1899      C1900   1.415       .  A
C1899      S1903   1.805       .  S
C1900      C1901   1.404       .  A
C1901      C1902   1.402       .  A
C1901      H1908   1.084       .  S
C1902      S1904   1.801       .  S
S1903      H1906   1.405       .  S
S1904      H1905   1.407       .  S
C1909      C1910   1.405       .  A
C1909      C1914   1.418       .  A
C1910      C1911   1.403       .  A
C1910      H1919   1.083       .  S
C1911      C1912   1.413       .  A
C1911      S1915   1.809       .  S
C1912      C1913   1.406       .  A
C1913      C1914   1.408       .  A
C1913      H1920   1.084       .  S
C1914      S1916   1.799       .  S
S1915      H1918   1.406       .  S
S1916      H1917   1.407       .  S
C1921      C1922   1.404       .  A
C1921      C1926   1.412       .  A
C1922      C1923   1.402       .  A
C1922      H1931   1.084       .  S
C1923      C1924   1.416   1_545  A
C1923      S1927   1.799   1_545  S
C1924      C1925   1.405   1_565  A
C1925      C1926   1.398       .  A
C1925      H1932   1.083   1_545  S
C1926      S1928   1.810       .  S
S1927      H1930   1.407       .  S
S1928      H1929   1.407       .  S
C1933      C1934   1.405       .  A
C1933      C1938   1.414       .  A
C1934      C1935   1.404       .  A
C1934      H1943   1.084       .  S
C1935      C1936   1.417       .  A
C1935      S1939   1.801       .  S
C1936      C1937   1.404       .  A
C1937      C1938   1.394       .  A
C1937      H1944   1.084       .  S
C1938      S1940   1.804       .  S
S1939      H1942   1.407       .  S
S1940      H1941   1.407       .  S
C1945      C1946   1.405       .  A
C1945      C1950   1.414       .  A
C1946      C1947   1.402       .  A
C1946      H1955   1.084       .  S
C1947      C1948   1.417       .  A
C1947      S1951   1.801       .  S
C1948      C1949   1.405       .  A
C1949      C1950   1.400       .  A
C1949      H1956   1.082       .  S
C1950      S1952   1.808       .  S
S1951      H1954   1.408       .  S
S1952      H1953   1.407       .  S
C1957      C1958   1.403       .  A
C1957      C1962   1.417       .  A
C1958      C1959   1.392       .  A
C1958      H1967   1.084       .  S
C1959      C1960   1.414       .  A
C1959      S1963   1.801       .  S
C1960      C1961   1.406       .  A
C1961      C1962   1.406       .  A
C1961      H1968   1.084       .  S
C1962      S1964   1.800       .  S
S1963      H1966   1.407       .  S
S1964      H1965   1.407   1_655  S
C1969      C1970   1.403       .  A
C1969      C1974   1.415       .  A
C1970      C1971   1.397       .  A
C1970      H1979   1.084       .  S
C1971      C1972   1.417       .  A
C1971      S1975   1.800       .  S
C1972      C1973   1.406       .  A
C1973      C1974   1.405       .  A
C1973      H1980   1.084       .  S
C1974      S1976   1.801       .  S
S1975      H1978   1.408       .  S
S1976      H1977   1.408       .  S
C1981      C1982   1.404       .  A
C1981      C1986   1.417       .  A
C1982      C1983   1.399       .  A
C1982      H1991   1.084       .  S
C1983      C1984   1.415       .  A
C1983      S1987   1.804       .  S
C1984      C1985   1.406       .  A
C1985      C1986   1.407       .  A
C1985      H1992   1.084       .  S
C1986      S1988   1.803       .  S
S1987      H1990   1.407       .  S
S1988      H1989   1.402       .  S
C1993      C1994   1.405       .  A
C1993      C1998   1.413       .  A
C1994      C1995   1.404       .  A
C1994      H2003   1.084       .  S
C1995      C1996   1.415       .  A
C1995      S1999   1.803       .  S
C1996      C1997   1.403       .  A
C1997      C1998   1.399       .  A
C1997      H2004   1.084       .  S
C1998      S2000   1.803       .  S
S1999      H2002   1.407       .  S
S2000      H2001   1.407       .  S
C2005      C2006   1.404       .  A
C2005      C2010   1.414       .  A
C2006      C2007   1.400       .  A
C2006      H2015   1.083       .  S
C2007      C2008   1.412       .  A
C2007      S2011   1.809       .  S
C2008      C2009   1.404       .  A
C2009      C2010   1.402       .  A
C2009      H2016   1.084       .  S
C2010      S2012   1.802       .  S
S2011      H2014   1.407       .  S
S2012      H2013   1.407   1_655  S
C2017      C2018   1.403       .  A
C2017      C2022   1.417       .  A
C2018      C2019   1.396       .  A
C2018      H2027   1.084       .  S
C2019      C2020   1.416       .  A
C2019      S2023   1.804       .  S
C2020      C2021   1.405       .  A
C2021      C2022   1.405       .  A
C2021      H2028   1.084       .  S
C2022      S2024   1.801       .  S
S2023      H2026   1.408       .  S
S2024      H2025   1.407       .  S
C2029      C2030   1.404       .  A
C2029      C2034   1.418       .  A
C2030      C2031   1.398       .  A
C2030      H2039   1.084       .  S
C2031      C2032   1.414       .  A
C2031      S2035   1.804       .  S
C2032      C2033   1.404       .  A
C2033      C2034   1.401       .  A
C2033      H2040   1.084       .  S
C2034      S2036   1.801       .  S
S2035      H2038   1.408       .  S
S2036      H2037   1.408       .  S
C2041      C2042   1.405       .  A
C2041      C2046   1.414       .  A
C2042      C2043   1.401       .  A
C2042      H2051   1.084       .  S
C2043      C2044   1.414       .  A
C2043      S2047   1.800       .  S
C2044      C2045   1.405       .  A
C2045      C2046   1.396       .  A
C2045      H2052   1.084       .  S
C2046      S2048   1.803       .  S
S2047      H2050   1.408       .  S
S2048      H2049   1.407       .  S
C2053      C2054   1.406       .  A
C2053      C2058   1.417       .  A
C2054      C2055   1.403       .  A
C2054      H2063   1.083       .  S
C2055      C2056   1.416       .  A
C2055      S2059   1.800       .  S
C2056      C2057   1.407       .  A
C2057      C2058   1.402       .  A
C2057      H2064   1.084       .  S
C2058      S2060   1.803       .  S
S2059      H2062   1.408       .  S
S2060      H2061   1.408       .  S
C2065      C2066   1.405       .  A
C2065      C2070   1.415       .  A
C2066      C2067   1.405       .  A
C2066      H2075   1.084       .  S
C2067      C2068   1.416       .  A
C2067      S2071   1.799       .  S
C2068      C2069   1.405       .  A
C2069      C2070   1.405       .  A
C2069      H2076   1.083       .  S
C2070      S2072   1.809       .  S
S2071      H2074   1.407       .  S
S2072      H2073   1.407       .  S
C2077      C2078   1.408       .  A
C2077      C2082   1.419       .  A
C2078      C2079   1.404       .  A
C2078      H2087   1.084       .  S
C2079      C2080   1.416       .  A
C2079      S2083   1.801       .  S
C2080      C2081   1.403       .  A
C2081      C2082   1.396       .  A
C2081      H2088   1.084       .  S
C2082      S2084   1.803       .  S
S2083      H2086   1.408       .  S
S2084      H2085   1.404       .  S
C2089      C2090   1.405       .  A
C2089      C2094   1.416       .  A
C2090      C2091   1.405       .  A
C2090      H2099   1.084       .  S
C2091      C2092   1.415       .  A
C2091      S2095   1.801       .  S
C2092      C2093   1.405       .  A
C2093      C2094   1.402       .  A
C2093      H2100   1.084       .  S
C2094      S2096   1.804       .  S
S2095      H2098   1.406       .  S
S2096      H2097   1.408       .  S
C2101      C2102   1.406       .  A
C2101      C2106   1.418       .  A
C2102      C2103   1.399       .  A
C2102      H2111   1.084       .  S
C2103      C2104   1.412       .  A
C2103      S2107   1.805       .  S
C2104      C2105   1.404       .  A
C2105      C2106   1.405       .  A
C2105      H2112   1.084       .  S
C2106      S2108   1.799       .  S
S2107      H2110   1.407       .  S
S2108      H2109   1.407       .  S
C2113      C2114   1.405       .  A
C2113      C2118   1.416       .  A
C2114      C2115   1.400       .  A
C2114      H2123   1.083       .  S
C2115      C2116   1.412       .  A
C2115      S2119   1.811       .  S
C2116      C2117   1.405       .  A
C2117      C2118   1.407       .  A
C2117      H2124   1.084       .  S
C2118      S2120   1.800       .  S
S2119      H2122   1.407       .  S
S2120      H2121   1.407       .  S
C2125      C2126   1.406       .  A
C2125      C2130   1.414       .  A
C2126      C2127   1.408       .  A
C2126      H2135   1.084       .  S
C2127      C2128   1.416       .  A
C2127      S2131   1.799       .  S
C2128      C2129   1.406       .  A
C2129      C2130   1.397       .  A
C2129      H2136   1.084       .  S
C2130      S2132   1.805       .  S
S2131      H2134   1.407       .  S
S2132      H2133   1.407       .  S
C2137      C2138   1.404       .  A
C2137      C2142   1.413       .  A
C2138      C2139   1.406       .  A
C2138      H2147   1.084       .  S
C2139      C2140   1.416       .  A
C2139      S2143   1.800       .  S
C2140      C2141   1.405       .  A
C2141      C2142   1.397       .  A
C2141      H2148   1.084       .  S
C2142      S2144   1.806       .  S
S2143      H2146   1.407       .  S
S2144      H2145   1.407       .  S
C2149      C2150   1.403       .  A
C2149      C2154   1.415       .  A
C2150      C2151   1.398       .  A
C2150      H2159   1.084       .  S
C2151      C2152   1.414       .  A
C2151      S2155   1.806       .  S
C2152      C2153   1.405       .  A
C2153      C2154   1.406       .  A
C2153      H2160   1.084       .  S
C2154      S2156   1.801       .  S
S2155      H2158   1.407       .  S
S2156      H2157   1.407       .  S
C2161      C2162   1.405       .  A
C2161      C2166   1.415       .  A
C2162      C2163   1.400       .  A
C2162      H2171   1.084       .  S
C2163      C2164   1.415       .  A
C2163      S2167   1.805       .  S
C2164      C2165   1.406       .  A
C2165      C2166   1.407       .  A
C2165      H2172   1.084       .  S
C2166      S2168   1.801       .  S
S2167      H2170   1.407       .  S
S2168      H2169   1.407       .  S
C2173      C2174   1.402       .  A
C2173      C2178   1.417       .  A
C2174      C2175   1.396       .  A
C2174      H2183   1.084       .  S
C2175      C2176   1.415       .  A
C2175      S2179   1.807       .  S
C2176      C2177   1.405       .  A
C2177      C2178   1.408       .  A
C2177      H2184   1.084       .  S
C2178      S2180   1.801       .  S
S2179      H2182   1.407       .  S
S2180      H2181   1.406       .  S
C2185      C2186   1.406       .  A
C2185      C2190   1.412       .  A
C2186      C2187   1.407       .  A
C2186      H2195   1.085       .  S
C2187      C2188   1.414       .  A
C2187      S2191   1.802       .  S
C2188      C2189   1.404       .  A
C2189      C2190   1.396       .  A
C2189      H2196   1.084       .  S
C2190      S2192   1.805       .  S
S2191      H2194   1.407       .  S
S2192      H2193   1.407       .  S
C2197      C2198   1.403       .  A
C2197      C2202   1.417       .  A
C2198      C2199   1.399       .  A
C2198      H2207   1.084       .  S
C2199      C2200   1.415       .  A
C2199      S2203   1.806       .  S
C2200      C2201   1.405       .  A
C2201      C2202   1.409       .  A
C2201      H2208   1.084       .  S
C2202      S2204   1.802       .  S
S2203      H2206   1.407       .  S
S2204      H2205   1.407       .  S
C2209      C2210   1.407       .  A
C2209      C2214   1.417       .  A
C2210      C2211   1.408       .  A
C2210      H2219   1.084       .  S
C2211      C2212   1.415       .  A
C2211      S2215   1.802       .  S
C2212      C2213   1.403       .  A
C2213      C2214   1.399       .  A
C2213      H2220   1.084       .  S
C2214      S2216   1.805       .  S
S2215      H2218   1.407       .  S
S2216      H2217   1.407       .  S
C2221      C2222   1.407       .  A
C2221      C2226   1.414       .  A
C2222      C2223   1.411       .  A
C2222      H2231   1.083       .  S
C2223      C2224   1.419       .  A
C2223      S2227   1.799       .  S
C2224      C2225   1.405       .  A
C2225      C2226   1.395       .  A
C2225      H2232   1.084       .  S
C2226      S2228   1.805       .  S
S2227      H2230   1.407       .  S
S2228      H2229   1.408       .  S
C2233      C2234   1.405       .  A
C2233      C2238   1.415       .  A
C2234      C2235   1.407       .  A
C2234      H2243   1.084       .  S
C2235      C2236   1.417       .  A
C2235      S2239   1.801       .  S
C2236      C2237   1.403       .  A
C2237      C2238   1.396       .  A
C2237      H2244   1.084       .  S
C2238      S2240   1.806       .  S
S2239      H2242   1.407       .  S
S2240      H2241   1.407       .  S
C2245      C2246   1.405       .  A
C2245      C2250   1.412       .  A
C2246      C2247   1.407       .  A
C2246      H2255   1.084       .  S
C2247      C2248   1.414       .  A
C2247      S2251   1.798       .  S
C2248      C2249   1.404       .  A
C2249      C2250   1.397       .  A
C2249      H2256   1.084       .  S
C2250      S2252   1.805       .  S
S2251      H2254   1.406       .  S
S2252      H2253   1.407       .  S
C2257      C2258   1.402       .  A
C2257      C2262   1.416       .  A
C2258      C2259   1.394       .  A
C2258      H2267   1.084       .  S
C2259      C2260   1.413       .  A
C2259      S2263   1.806       .  S
C2260      C2261   1.405       .  A
C2261      C2262   1.407       .  A
C2261      H2268   1.084       .  S
C2262      S2264   1.801       .  S
S2263      H2266   1.407       .  S
S2264      H2265   1.407       .  S
C2269      C2270   1.403       .  A
C2269      C2274   1.417       .  A
C2270      C2271   1.394       .  A
C2270      H2279   1.084       .  S
C2271      C2272   1.415       .  A
C2271      S2275   1.806       .  S
C2272      C2273   1.406       .  A
C2273      C2274   1.409       .  A
C2273      H2280   1.083       .  S
C2274      S2276   1.798       .  S
S2275      H2278   1.408       .  S
S2276      H2277   1.407       .  S
C2281      C2282   1.406       .  A
C2281      C2286   1.410       .  A
C2282      C2283   1.409       .  A
C2282      H2291   1.084       .  S
C2283      C2284   1.415       .  A
C2283      S2287   1.801       .  S
C2284      C2285   1.403       .  A
C2285      C2286   1.393       .  A
C2285      H2292   1.084       .  S
C2286      S2288   1.805       .  S
S2287      H2290   1.406       .  S
S2288      H2289   1.407       .  S
C2293      C2294   1.401       .  A
C2293      C2298   1.416       .  A
C2294      C2295   1.395       .  A
C2294      H2303   1.084       .  S
C2295      C2296   1.412       .  A
C2295      S2299   1.806       .  S
C2296      C2297   1.404       .  A
C2297      C2298   1.407       .  A
C2297      H2304   1.084       .  S
C2298      S2300   1.802       .  S
S2299      H2302   1.407       .  S
S2300      H2301   1.406       .  S
C2305      C2306   1.408       .  A
C2305      C2310   1.416       .  A
C2306      C2307   1.411       .  A
C2306      H2315   1.084       .  S
C2307      C2308   1.417       .  A
C2307      S2311   1.800       .  S
C2308      C2309   1.405       .  A
C2309      C2310   1.398       .  A
C2309      H2316   1.084       .  S
C2310      S2312   1.805       .  S
S2311      H2314   1.407       .  S
S2312      H2313   1.407       .  S
C2317      C2318   1.405       .  A
C2317      C2322   1.415       .  A
C2318      C2319   1.406       .  A
C2318      H2327   1.084       .  S
C2319      C2320   1.415       .  A
C2319      S2323   1.801       .  S
C2320      C2321   1.404       .  A
C2321      C2322   1.398       .  A
C2321      H2328   1.084       .  S
C2322      S2324   1.806       .  S
S2323      H2326   1.407       .  S
S2324      H2325   1.407       .  S
C2329      C2330   1.406       .  A
C2329      C2334   1.414       .  A
C2330      C2331   1.410       .  A
C2330      H2339   1.084       .  S
C2331      C2332   1.417       .  A
C2331      S2335   1.801       .  S
C2332      C2333   1.405       .  A
C2333      C2334   1.398       .  A
C2333      H2340   1.084       .  S
C2334      S2336   1.805       .  S
S2335      H2338   1.407       .  S
S2336      H2337   1.407       .  S
C2341      C2342   1.403       .  A
C2341      C2346   1.417       .  A
C2342      C2343   1.400       .  A
C2342      H2351   1.083       .  S
C2343      C2344   1.414       .  A
C2343      S2347   1.811       .  S
C2344      C2345   1.406       .  A
C2345      C2346   1.409       .  A
C2345      H2352   1.084       .  S
C2346      S2348   1.801       .  S
S2347      H2350   1.407   1_565  S
S2348      H2349   1.407       .  S
C2353      C2354   1.407       .  A
C2353      C2358   1.415       .  A
C2354      C2355   1.412       .  A
C2354      H2363   1.084       .  S
C2355      C2356   1.419       .  A
C2355      S2359   1.800       .  S
C2356      C2357   1.405       .  A
C2357      C2358   1.398       .  A
C2357      H2364   1.084       .  S
C2358      S2360   1.806       .  S
S2359      H2362   1.406   1_554  S
S2360      H2361   1.408       .  S
C2365      C2366   1.403       .  A
C2365      C2370   1.415       .  A
C2366      C2367   1.396       .  A
C2366      H2375   1.084       .  S
C2367      C2368   1.416       .  A
C2367      S2371   1.805       .  S
C2368      C2369   1.407       .  A
C2369      C2370   1.408       .  A
C2369      H2376   1.084       .  S
C2370      S2372   1.801       .  S
S2371      H2374   1.407       .  S
S2372      H2373   1.407       .  S
C2377      C2378   1.402       .  A
C2377      C2382   1.414       .  A
C2378      C2379   1.395       .  A
C2378      H2387   1.084       .  S
C2379      C2380   1.415       .  A
C2379      S2383   1.805       .  S
C2380      C2381   1.406       .  A
C2381      C2382   1.407       .  A
C2381      H2388   1.084       .  S
C2382      S2384   1.802       .  S
S2383      H2386   1.407       .  S
S2384      H2385   1.406   1_554  S
C2389      C2390   1.401       .  A
C2389      C2394   1.416       .  A
C2390      C2391   1.393       .  A
C2390      H2399   1.084       .  S
C2391      C2392   1.412       .  A
C2391      S2395   1.807       .  S
C2392      C2393   1.405       .  A
C2393      C2394   1.409       .  A
C2393      H2400   1.084       .  S
C2394      S2396   1.802       .  S
S2395      H2398   1.407       .  S
S2396      H2397   1.407       .  S
C2401      C2402   1.407       .  A
C2401      C2406   1.412       .  A
C2402      C2403   1.410       .  A
C2402      H2411   1.084       .  S
C2403      C2404   1.415       .  A
C2403      S2407   1.802       .  S
C2404      C2405   1.402       .  A
C2405      C2406   1.395       .  A
C2405      H2412   1.083       .  S
C2406      S2408   1.806       .  S
S2407      H2410   1.406       .  S
S2408      H2409   1.407       .  S
C2413      C2414   1.403       .  A
C2413      C2418   1.416       .  A
C2414      C2415   1.399       .  A
C2414      H2423   1.084       .  S
C2415      C2416   1.416       .  A
C2415      S2419   1.806       .  S
C2416      C2417   1.405       .  A
C2417      C2418   1.408       .  A
C2417      H2424   1.084       .  S
C2418      S2420   1.801       .  S
S2419      H2422   1.407       .  S
S2420      H2421   1.407       .  S
C2425      C2426   1.405       .  A
C2425      C2430   1.413       .  A
C2426      C2427   1.408       .  A
C2426      H2435   1.084       .  S
C2427      C2428   1.417       .  A
C2427      S2431   1.801       .  S
C2428      C2429   1.402       .  A
C2429      C2430   1.396       .  A
C2429      H2436   1.084       .  S
C2430      S2432   1.806       .  S
S2431      H2434   1.407   1_554  S
S2432      H2433   1.407       .  S
C2437      C2438   1.407       .  A
C2437      C2442   1.413       .  A
C2438      C2439   1.409       .  A
C2438      H2447   1.084       .  S
C2439      C2440   1.415       .  A
C2439      S2443   1.801       .  S
C2440      C2441   1.404       .  A
C2441      C2442   1.396       .  A
C2441      H2448   1.084       .  S
C2442      S2444   1.805       .  S
S2443      H2446   1.407       .  S
S2444      H2445   1.407       .  S
C2449      C2450   1.403       .  A
C2449      C2454   1.415       .  A
C2450      C2451   1.403       .  A
C2450      H2459   1.083       .  S
C2451      C2452   1.415       .  A
C2451      S2455   1.810       .  S
C2452      C2453   1.406       .  A
C2453      C2454   1.407       .  A
C2453      H2460   1.084       .  S
C2454      S2456   1.802       .  S
S2455      H2458   1.406       .  S
S2456      H2457   1.407       .  S
C2461      C2462   1.405       .  A
C2461      C2466   1.414       .  A
C2462      C2463   1.409       .  A
C2462      H2471   1.084       .  S
C2463      C2464   1.418       .  A
C2463      S2467   1.800       .  S
C2464      C2465   1.406       .  A
C2465      C2466   1.399       .  A
C2465      H2472   1.084       .  S
C2466      S2468   1.805       .  S
S2467      H2470   1.407       .  S
S2468      H2469   1.407       .  S
C2473      C2474   1.401       .  A
C2473      C2478   1.416       .  A
C2474      C2475   1.392       .  A
C2474      H2483   1.084       .  S
C2475      C2476   1.414       .  A
C2475      S2479   1.806       .  S
C2476      C2477   1.407       .  A
C2477      C2478   1.409       .  A
C2477      H2484   1.084       .  S
C2478      S2480   1.801       .  S
S2479      H2482   1.408       .  S
S2480      H2481   1.406       .  S
C2485      C2486   1.404       .  A
C2485      C2490   1.417       .  A
C2486      C2487   1.399       .  A
C2486      H2495   1.084       .  S
C2487      C2488   1.414       .  A
C2487      S2491   1.806       .  S
C2488      C2489   1.404       .  A
C2489      C2490   1.409       .  A
C2489      H2496   1.084       .  S
C2490      S2492   1.801       .  S
S2491      H2494   1.407       .  S
S2492      H2493   1.407       .  S
C2497      C2498   1.403       .  A
C2497      C2502   1.417       .  A
C2498      C2499   1.396       .  A
C2498      H2507   1.084       .  S
C2499      C2500   1.413       .  A
C2499      S2503   1.806       .  S
C2500      C2501   1.405       .  A
C2501      C2502   1.409       .  A
C2501      H2508   1.084       .  S
C2502      S2504   1.798       .  S
S2503      H2506   1.407       .  S
S2504      H2505   1.407       .  S
C2509      C2510   1.403       .  A
C2509      C2514   1.415       .  A
C2510      C2511   1.396       .  A
C2510      H2519   1.084       .  S
C2511      C2512   1.413       .  A
C2511      S2515   1.805       .  S
C2512      C2513   1.407       .  A
C2513      C2514   1.408       .  A
C2513      H2520   1.084       .  S
C2514      S2516   1.802       .  S
S2515      H2518   1.407       .  S
S2516      H2517   1.406       .  S
C2521      C2522   1.405       .  A
C2521      C2526   1.415       .  A
C2522      C2523   1.407       .  A
C2522      H2531   1.084       .  S
C2523      C2524   1.416       .  A
C2523      S2527   1.801       .  S
C2524      C2525   1.404       .  A
C2525      C2526   1.399       .  A
C2525      H2532   1.084       .  S
C2526      S2528   1.806       .  S
S2527      H2530   1.407       .  S
S2528      H2529   1.408       .  S
C2533      C2534   1.403       .  A
C2533      C2538   1.416       .  A
C2534      C2535   1.397       .  A
C2534      H2543   1.084       .  S
C2535      C2536   1.414       .  A
C2535      S2539   1.806       .  S
C2536      C2537   1.406       .  A
C2537      C2538   1.408       .  A
C2537      H2544   1.084       .  S
C2538      S2540   1.802       .  S
S2539      H2542   1.407       .  S
S2540      H2541   1.406       .  S
C2545      C2546   1.401       .  A
C2545      C2550   1.414       .  A
C2546      C2547   1.400       .  A
C2546      H2555   1.083       .  S
C2547      C2548   1.414       .  A
C2547      S2551   1.809       .  S
C2548      C2549   1.405       .  A
C2549      C2550   1.407       .  A
C2549      H2556   1.084       .  S
C2550      S2552   1.802   1_554  S
S2551      H2554   1.407       .  S
S2552      H2553   1.407       .  S
C2557      C2558   1.405       .  A
C2557      C2562   1.413       .  A
C2558      C2559   1.408       .  A
C2558      H2567   1.084       .  S
C2559      C2560   1.417       .  A
C2559      S2563   1.798       .  S
C2560      C2561   1.405       .  A
C2561      C2562   1.397       .  A
C2561      H2568   1.084       .  S
C2562      S2564   1.805       .  S
S2563      H2566   1.407       .  S
S2564      H2565   1.407       .  S
C2569      C2570   1.407       .  A
C2569      C2574   1.414       .  A
C2570      C2571   1.409       .  A
C2570      H2579   1.084       .  S
C2571      C2572   1.415       .  A
C2571      S2575   1.798       .  S
C2572      C2573   1.403       .  A
C2573      C2574   1.394       .  A
C2573      H2580   1.085       .  S
C2574      S2576   1.806       .  S
S2575      H2578   1.406       .  S
S2576      H2577   1.407       .  S
C2581      C2582   1.403       .  A
C2581      C2586   1.414       .  A
C2582      C2583   1.397       .  A
C2582      H2591   1.084       .  S
C2583      C2584   1.415       .  A
C2583      S2587   1.806       .  S
C2584      C2585   1.405       .  A
C2585      C2586   1.406       .  A
C2585      H2592   1.084       .  S
C2586      S2588   1.798       .  S
S2587      H2590   1.407       .  S
S2588      H2589   1.406       .  S
C2593      C2594   1.407       .  A
C2593      C2598   1.411       .  A
C2594      C2595   1.410       .  A
C2594      H2603   1.084       .  S
C2595      C2596   1.418       .  A
C2595      S2599   1.801       .  S
C2596      C2597   1.405       .  A
C2597      C2598   1.394       .  A
C2597      H2604   1.084       .  S
C2598      S2600   1.802   1_554  S
S2599      H2602   1.400       .  S
S2600      H2601   1.408       .  S
C2605      C2606   1.406       .  A
C2605      C2610   1.411       .  A
C2606      C2607   1.409       .  A
C2606      H2615   1.084       .  S
C2607      C2608   1.417       .  A
C2607      S2611   1.800       .  S
C2608      C2609   1.403       .  A
C2609      C2610   1.394       .  A
C2609      H2616   1.084       .  S
C2610      S2612   1.802       .  S
S2611      H2614   1.404       .  S
S2612      H2613   1.407       .  S
C2617      C2618   1.409       .  A
C2617      C2622   1.414       .  A
C2618      C2619   1.411       .  A
C2618      H2627   1.083       .  S
C2619      C2620   1.416       .  A
C2619      S2623   1.800       .  S
C2620      C2621   1.404       .  A
C2621      C2622   1.394       .  A
C2621      H2628   1.084       .  S
C2622      S2624   1.805       .  S
S2623      H2626   1.406       .  S
S2624      H2625   1.408       .  S
C2629      C2630   1.407       .  A
C2629      C2634   1.413       .  A
C2630      C2631   1.409       .  A
C2630      H2639   1.084       .  S
C2631      C2632   1.416       .  A
C2631      S2635   1.802       .  S
C2632      C2633   1.403       .  A
C2633      C2634   1.397       .  A
C2633      H2640   1.084       .  S
C2634      S2636   1.805       .  S
S2635      H2638   1.406       .  S
S2636      H2637   1.407       .  S
C2641      C2642   1.403       .  A
C2641      C2646   1.417       .  A
C2642      C2643   1.397       .  A
C2642      H2651   1.084       .  S
C2643      C2644   1.413       .  A
C2643      S2647   1.805       .  S
C2644      C2645   1.407       .  A
C2645      C2646   1.410       .  A
C2645      H2652   1.084       .  S
C2646      S2648   1.801       .  S
S2647      H2650   1.407       .  S
S2648      H2649   1.406       .  S
C2653      C2654   1.404       .  A
C2653      C2658   1.416       .  A
C2654      C2655   1.398       .  A
C2654      H2663   1.084       .  S
C2655      C2656   1.413       .  A
C2655      S2659   1.805       .  S
C2656      C2657   1.406       .  A
C2657      C2658   1.408       .  A
C2657      H2664   1.084       .  S
C2658      S2660   1.802       .  S
S2659      H2662   1.407       .  S
S2660      H2661   1.407       .  S
C2665      C2666   1.403       .  A
C2665      C2670   1.416       .  A
C2666      C2667   1.398       .  A
C2666      H2675   1.084       .  S
C2667      C2668   1.413       .  A
C2667      S2671   1.804       .  S
C2668      C2669   1.406       .  A
C2669      C2670   1.407       .  A
C2669      H2676   1.084       .  S
C2670      S2672   1.803       .  S
S2671      H2674   1.407       .  S
S2672      H2673   1.405       .  S
C2677      C2678   1.406       .  A
C2677      C2682   1.412       .  A
C2678      C2679   1.409       .  A
C2678      H2687   1.084       .  S
C2679      C2680   1.417       .  A
C2679      S2683   1.801       .  S
C2680      C2681   1.404       .  A
C2681      C2682   1.396       .  A
C2681      H2688   1.084       .  S
C2682      S2684   1.805       .  S
S2683      H2686   1.404       .  S
S2684      H2685   1.407       .  S
