geometry optimzed in LAMMPS
_audit_creation_date              2020-11-30 
_audit_creation_method            'lammps2cif' 
_symmetry_space_group_name_H-M    'P1' 
_symmetry_Int_Tables_number       1 
_symmetry_cell_setting            triclinic 
loop_ 
_symmetry_equiv_pos_as_xyz 
  x,y,z 
_cell_length_a                    59.10500806510987 
_cell_length_b                    58.900130663963026 
_cell_length_c                    41.09168272467586 
_cell_angle_alpha                 92.26158552550406 
_cell_angle_beta                  86.85315608900359 
_cell_angle_gamma                 122.84494574370343 
loop_ 
_atom_site_label 
_atom_site_type_symbol 
_atom_site_fract_x 
_atom_site_fract_y 
_atom_site_fract_z 
_atom_site_charge 
In1        In  0.63620271  0.52893534  0.46445604     1.36870
C2          C  0.65173112  0.50613180  0.00515340     0.77110
O3          O  0.59823422  0.49874212  0.99163218    -0.61340
O4          O  0.60082412  0.49577885  0.43987000    -0.52250
C5          C  0.62767584  0.56903329  0.46338943     0.69770
O6          O  0.64785224  0.57233996  0.97726474    -0.47110
C7          C  0.66471116  0.53894343  0.40905644     0.74480
O8          O  0.64811614  0.52471789  0.01478357    -0.58970
O9          O  0.64147715  0.51835482  0.41409045    -0.49060
O10         O  0.65123984  0.50277566  0.47474102    -0.55400
C11         C  0.58750462  0.48528846  0.96605026     0.84660
O12         O  0.61149525  0.54532275  0.45361498    -0.57290
O13         O  0.67464177  0.55448866  0.43350824    -0.60580
In14       In  0.52904616  0.62003415  0.44359317     1.36870
C15         C  0.50711232  0.64793252  0.42755970     0.77110
O16         O  0.51512242  0.59595787  0.39645551    -0.61340
O17         O  0.49822310  0.57632475  0.44193967    -0.52250
C18         C  0.57515106  0.62214017  0.44355374     0.69770
O19         O  0.57526539  0.64293201  0.43595714    -0.47110
C20         C  0.51878281  0.61665610  0.00632461     0.74480
O21         O  0.51978403  0.64198966  0.40676330    -0.58970
O22         O  0.50227480  0.59960412  0.98630422    -0.49060
O23         O  0.50997577  0.64404230  0.45641241    -0.55400
C24         C  0.49851190  0.57433604  0.41132399     0.84660
O25         O  0.55228072  0.60160304  0.44955877    -0.57290
O26         O  0.54046501  0.63626121  0.49391897    -0.60580
In27       In  0.62601444  0.52607537  0.22790243     1.36870
C28         C  0.63917445  0.49619324  0.19194488     0.77110
O29         O  0.66570951  0.55169832  0.25316787    -0.61340
O30         O  0.63196828  0.51886250  0.27803615    -0.52250
C31         C  0.62153873  0.56663066  0.21301465     0.69770
O32         O  0.63292903  0.55840128  0.19347345    -0.47110
C33         C  0.57403726  0.48969413  0.22988509     0.74480
O34         O  0.64962651  0.52103219  0.18645810    -0.58970
O35         O  0.58671582  0.50184011  0.25510822    -0.49060
O36         O  0.62301715  0.48771900  0.21618649    -0.55400
C37         C  0.65625692  0.53797574  0.27888017     0.84660
O38         O  0.61501886  0.55569053  0.24051716    -0.57290
O39         O  0.58763769  0.49794393  0.20337009    -0.60580
In40       In  0.50249712  0.59277718  0.20556235     1.36870
C41         C  0.48243917  0.61555879  0.24338670     0.77110
O42         O  0.51946964  0.61991879  0.16263803    -0.61340
O43         O  0.48174586  0.58269890  0.15881042    -0.52250
C44         C  0.55037326  0.59916543  0.20183202     0.69770
O45         O  0.54672473  0.61643759  0.21606879    -0.47110
C46         C  0.47698806  0.54391194  0.22979356     0.74480
O47         O  0.50725262  0.62432858  0.24132581    -0.58970
O48         O  0.47404463  0.54893354  0.20134230    -0.49060
O49         O  0.46811269  0.59611732  0.22450439    -0.55400
C50         C  0.50086061  0.60323800  0.14458436     0.84660
O51         O  0.52959467  0.57919484  0.18996562    -0.57290
O52         O  0.49320516  0.56432707  0.24651935    -0.60580
In53       In  0.44221066  0.33404099  0.45153705     1.36870
C54         C  0.46093292  0.31356978  0.98983678     0.77110
O55         O  0.41169501  0.29614316  0.42456468    -0.61340
O56         O  0.44867634  0.32558471  0.40056516    -0.52250
C57         C  0.40981965  0.35197064  0.45636034     0.69770
O58         O  0.40713815  0.33451032  0.97597233    -0.47110
C59         C  0.48706790  0.38198057  0.95935503     0.74480
O60         O  0.44056692  0.31453280  0.99866727    -0.58970
O61         O  0.47972404  0.37041308  0.43185519    -0.49060
O62         O  0.46841510  0.31904408  0.46029462    -0.55400
C63         C  0.42608239  0.30372593  0.39839665     0.84660
O64         O  0.42709790  0.35793612  0.43349023    -0.57290
O65         O  0.47037142  0.36955840  0.98249200    -0.60580
In66       In  0.35636753  0.45589442  0.46512145     1.36870
C67         C  0.33499554  0.48041756  0.44000331     0.77110
O68         O  0.32107759  0.43673528  0.50036786    -0.61340
O69         O  0.35930840  0.46956895  0.01640162    -0.52250
C70         C  0.36276776  0.41575302  0.47050623     0.69770
O71         O  0.34752561  0.41487254  0.44905330    -0.47110
C72         C  0.40263899  0.48464677  0.43185157     0.74480
O73         O  0.32618231  0.45572347  0.43334627    -0.58970
O74         O  0.39980036  0.48873438  0.46189378    -0.49060
O75         O  0.35394808  0.49115548  0.45947147    -0.55400
C76         C  0.33480682  0.45197529  0.02369518     0.84660
O77         O  0.37123074  0.43513392  0.49057832    -0.57290
O78         O  0.38200169  0.46500897  0.41899107    -0.60580
In79       In  0.43262620  0.33826081  0.21833528     1.36870
C80         C  0.46127383  0.32529650  0.17815503     0.77110
O81         O  0.46439543  0.37785469  0.19669463    -0.61340
O82         O  0.45826523  0.37478731  0.24821991    -0.52250
C83         C  0.39020882  0.34256350  0.21323582     0.69770
O84         O  0.39240826  0.32526599  0.19645596    -0.47110
C85         C  0.41962788  0.30648687  0.26897134     0.74480
O86         O  0.44470900  0.33036498  0.16766685    -0.58970
O87         O  0.43972540  0.33039286  0.26736134    -0.49060
O88         O  0.46101601  0.32462107  0.20869661    -0.55400
C89         C  0.47210996  0.38911808  0.22416367     0.84660
O90         O  0.40961186  0.35720014  0.23123222    -0.57290
O91         O  0.40546595  0.29805631  0.24401836    -0.60580
In92       In  0.33503181  0.43901923  0.21834342     1.36870
C93         C  0.31989526  0.46667707  0.25626666     0.77110
O94         O  0.36291615  0.44422968  0.25770202    -0.61340
O95         O  0.37915722  0.46382462  0.21207655    -0.52250
C96         C  0.33130824  0.39222348  0.21187349     0.69770
O97         O  0.31624467  0.39526743  0.23246201    -0.47110
C98         C  0.32104425  0.44311407  0.16016277     0.74480
O99         O  0.30783519  0.44115977  0.25803985    -0.58970
O100        O  0.34436826  0.45871606  0.17068388    -0.49060
O101        O  0.33834700  0.47729712  0.23439251    -0.55400
C102        C  0.38359985  0.45831048  0.23948040     0.84660
O103        O  0.34498782  0.41168276  0.19273670    -0.57290
O104        O  0.30398753  0.42583569  0.18040161    -0.60580
C105        C  0.42902028  0.75179376  0.32647787    -0.02960
C106        C  0.43137570  0.64860314  0.34649659    -0.02960
C107        C  0.20851537  0.63826567  0.34268153    -0.02960
C108        C  0.32073402  0.74574773  0.32705871    -0.02960
C109        C  0.20783342  0.53173880  0.34020816    -0.02960
C110        C  0.31675250  0.54224508  0.35305186    -0.02960
In111      In  0.51232839  0.88895459  0.44892981     1.36870
C112        C  0.55611078  0.93780664  0.45398637     0.77110
O113        O  0.50068210  0.90612343  0.40950451    -0.61340
O114        O  0.47861066  0.89527749  0.45503128    -0.52250
C115        C  0.49398172  0.84413970  0.41434107     0.69770
O116        O  0.51745269  0.86474439  0.40907546    -0.47110
C117        C  0.51522763  0.87268364  0.00602130     0.74480
O118        O  0.55536515  0.92060097  0.43375974    -0.58970
O119        O  0.49798960  0.87821630  0.00008122    -0.49060
O120        O  0.53492252  0.92945015  0.47136671    -0.55400
C121        C  0.48230980  0.90558913  0.42731342     0.84660
O122        O  0.48070735  0.84634463  0.43792595    -0.57290
O123        O  0.53035629  0.87448239  0.48228198    -0.60580
In124      In  0.61712355  0.09690949  0.46765189     1.36870
C125        C  0.63487332  0.13556569  0.01498350     0.77110
O126        O  0.64897096  0.11600563  0.42533931    -0.61340
O127        O  0.60843892  0.10159337  0.41697340    -0.52250
C128        C  0.61292688  0.05001549  0.46467168     0.69770
O129        O  0.63539327  0.07167304  0.97175197    -0.47110
C130        C  0.56862392  0.08273361  0.48772340     0.74480
O131        O  0.63886924  0.11657929  0.01623807    -0.58970
O132        O  0.57907070  0.09353653  0.46051870    -0.49060
O133        O  0.62541106  0.13604486  0.48775908    -0.55400
C134        C  0.63183051  0.11163253  0.40464513     0.84660
O135        O  0.59445611  0.05326296  0.45776065    -0.57290
O136        O  0.58142131  0.07663659  0.00555199    -0.60580
In137      In  0.52955215  0.87843182  0.20506824     1.36870
C138        C  0.50954637  0.83051503  0.23260352     0.77110
O139        O  0.50144716  0.87869348  0.24413244    -0.61340
O140        O  0.50076296  0.89003407  0.19566266    -0.52250
C141        C  0.57486137  0.92669255  0.20976979     0.69770
O142        O  0.57381267  0.90808877  0.19236233    -0.47110
C143        C  0.52630407  0.86852549  0.14176863     0.74480
O144        O  0.53020577  0.85170288  0.24331881    -0.58970
O145        O  0.51356951  0.87737608  0.15728750    -0.49060
O146        O  0.50199402  0.83412988  0.20651491    -0.55400
C147        C  0.49034531  0.88499709  0.22415152     0.84660
O148        O  0.55458713  0.91920498  0.22853569    -0.57290
O149        O  0.54130945  0.86491798  0.15876692    -0.60580
In150      In  0.61242323  0.07790913  0.20440687     1.36870
C151        C  0.62453002  0.11896038  0.16609789     0.77110
O152        O  0.58300530  0.05415434  0.16465952    -0.61340
O153        O  0.56809471  0.05633818  0.21211460    -0.52250
C154        C  0.61978004  0.03740631  0.20391093     0.69770
O155        O  0.63367931  0.05728742  0.18501217    -0.47110
C156        C  0.62765479  0.09964648  0.26460535     0.74480
O157        O  0.63866836  0.10867585  0.16433643    -0.58970
O158        O  0.64452528  0.10273782  0.24201421    -0.49060
O159        O  0.60637326  0.10931383  0.18833225    -0.55400
C160        C  0.56271745  0.04810178  0.18298280     0.84660
O161        O  0.60400447  0.03951082  0.22368658    -0.57290
O162        O  0.60363830  0.08653316  0.25573163    -0.60580
In163      In  0.34255052  0.87848183  0.44484312     1.36870
C164        C  0.32419600  0.83261858  0.41058212     0.77110
O165        O  0.37489937  0.90177061  0.40526014    -0.61340
O166        O  0.38579833  0.89644339  0.45139580    -0.52250
C167        C  0.33556585  0.91907984  0.45384095     0.69770
O168        O  0.31783975  0.89756566  0.43950670    -0.47110
C169        C  0.33345530  0.86526236  0.50656244     0.74480
O170        O  0.32710236  0.85340799  0.39815698    -0.58970
O171        O  0.35373012  0.86875528  0.48998965    -0.49060
O172        O  0.32692671  0.83427270  0.44083193    -0.55400
C173        C  0.39359939  0.90664108  0.42345519     0.84660
O174        O  0.35593623  0.91936593  0.46162343    -0.57290
O175        O  0.31592106  0.86553198  0.49043338    -0.60580
In176      In  0.42926601  0.07411582  0.48051302     1.36870
C177        C  0.44837266  0.11873797  0.01794609     0.77110
O178        O  0.44919819  0.06627881  0.01881592    -0.61340
O179        O  0.46180088  0.06724685  0.46868760    -0.52250
C180        C  0.38316774  0.02613242  0.48122716     0.69770
O181        O  0.38313382  0.04765097  0.97833705    -0.47110
C182        C  0.43674748  0.08364934  0.41673403     0.74480
O183        O  0.42933908  0.09591167  0.02788007    -0.58970
O184        O  0.45374403  0.08400462  0.43424551    -0.49060
O185        O  0.45297352  0.11906531  0.48776511    -0.55400
C186        C  0.46631538  0.06726795  0.99824264     0.84660
O187        O  0.40564784  0.02972749  0.48635880    -0.57290
O188        O  0.41626673  0.08063815  0.43248356    -0.60580
In189      In  0.34420112  0.86845953  0.20812565     1.36870
C190        C  0.32204490  0.82326626  0.24292538     0.77110
O191        O  0.31693679  0.86152954  0.16725756    -0.61340
O192        O  0.35133448  0.85888180  0.15805343    -0.52250
C193        C  0.34833959  0.91551863  0.21378539     0.69770
O194        O  0.32725256  0.89409270  0.22432952    -0.47110
C195        C  0.39297490  0.88115037  0.21914811     0.74480
O196        O  0.32749416  0.84549449  0.25558717    -0.58970
O197        O  0.38316190  0.87475834  0.19138293    -0.49060
O198        O  0.32293541  0.82317036  0.21227750    -0.55400
C199        C  0.33247265  0.85959711  0.14643055     0.84660
O200        O  0.36651893  0.91248098  0.20168626    -0.57290
O201        O  0.37893157  0.88413628  0.24096476    -0.60580
In202      In  0.45188336  0.07608661  0.21216001     1.36870
C203        C  0.40612286  0.02799561  0.21313143     0.77110
O204        O  0.46160607  0.05690519  0.16923517    -0.61340
O205        O  0.48157295  0.06469268  0.21387565    -0.52250
C206        C  0.47403707  0.12459750  0.18457903     0.69770
O207        O  0.44873736  0.10864776  0.18829726    -0.47110
C208        C  0.45134358  0.08695081  0.27555277     0.74480
O209        O  0.40972135  0.04629553  0.19411773    -0.58970
O210        O  0.47099624  0.08779203  0.26059148    -0.49060
O211        O  0.42542734  0.03505455  0.23117961    -0.55400
C212        C  0.47773583  0.05450848  0.18552348     0.84660
O213        O  0.48698217  0.11473171  0.19327141    -0.57290
O214        O  0.43312930  0.08332043  0.25731181    -0.60580
In215      In  0.86904211  0.34598153  0.22894803     1.36870
C216        C  0.82638284  0.32601651  0.19340181     0.77110
O217        O  0.85188744  0.30886885  0.25971881    -0.61340
O218        O  0.85795441  0.34529441  0.28082409    -0.52250
C219        C  0.91557518  0.35003866  0.22482512     0.69770
O220        O  0.89660148  0.33380047  0.20660779    -0.47110
C221        C  0.88834636  0.39744600  0.21768203     0.74480
O222        O  0.84573025  0.32339752  0.18473240    -0.58970
O223        O  0.87726428  0.38606713  0.24443954    -0.49060
O224        O  0.82812841  0.33659298  0.22109722    -0.55400
C225        C  0.85056009  0.32109845  0.28498999     0.84660
O226        O  0.90998813  0.36282089  0.24542016    -0.57290
O227        O  0.88940992  0.38219647  0.19608558    -0.60580
In228      In  0.08035974  0.44219713  0.21826303     1.36870
C229        C  0.12022724  0.45972511  0.25801900     0.77110
O230        O  0.08865401  0.41458685  0.18801706    -0.61340
O231        O  0.09435264  0.44983647  0.16674412    -0.52250
C232        C  0.02900252  0.40316337  0.21837536     0.69770
O233        O  0.04550535  0.40152931  0.23498549    -0.47110
C234        C  0.07505655  0.48400669  0.22448623     0.74480
O235        O  0.09633295  0.44196997  0.26713974    -0.58970
O236        O  0.08895014  0.48156507  0.20193686    -0.49060
O237        O  0.12315485  0.46622270  0.22865141    -0.55400
C238        C  0.09492836  0.42883916  0.16290969     0.84660
O239        O  0.03920268  0.42441510  0.20208807    -0.57290
O240        O  0.06459365  0.46521968  0.24500931    -0.60580
In241      In  0.87198101  0.33806422  0.97764743     1.36870
C242        C  0.82603107  0.31875886  0.01325116     0.77110
O243        O  0.88241270  0.37426315  0.00953627    -0.61340
O244        O  0.88577668  0.37750017  0.95751994    -0.52250
C245        C  0.91817825  0.34031557  0.97659018     0.69770
O246        O  0.89594311  0.31786866  0.97985524    -0.47110
C247        C  0.85504461  0.31827859  0.41859734     0.74480
O248        O  0.84626270  0.31990618  0.02442169    -0.58970
O249        O  0.86430548  0.34248365  0.42687998    -0.49060
O250        O  0.82908225  0.32494590  0.98380303    -0.55400
C251        C  0.88665278  0.38845896  0.98484275     0.84660
O252        O  0.91620275  0.36044525  0.47874618    -0.57290
O253        O  0.85473737  0.30362044  0.44051585    -0.60580
In254      In  0.07830817  0.42886142  0.47405503     1.36870
C255        C  0.12455499  0.45558669  0.43646695     0.77110
O256        O  0.06229294  0.44995650  0.44857061    -0.60860
O257        O  0.06834531  0.45688805  0.49939453    -0.52250
C258        C  0.02933841  0.38498635  0.46372863     0.69770
O259        O  0.04734574  0.39567301  0.44114343    -0.47110
C260        C  0.09435930  0.42171804  0.02948929     0.74480
O261        O  0.10857441  0.43012411  0.43525283    -0.58970
O262        O  0.09255937  0.44153841  0.02405841    -0.49060
O263        O  0.11698383  0.46656147  0.45724229    -0.55400
C264        C  0.06252362  0.46315867  0.47361775     0.84660
O265        O  0.03747171  0.39494948  0.49152727    -0.57290
O266        O  0.08911303  0.40555006  0.00566502    -0.60580
In267      In  0.87954904  0.53155955  0.22668344     1.36870
C268        C  0.83901896  0.51310468  0.18541015     0.77110
O269        O  0.89265909  0.50895469  0.19399757    -0.61340
O270        O  0.87846361  0.49541914  0.24230169    -0.52250
C271        C  0.93253903  0.56914847  0.22598755     0.69770
O272        O  0.91678138  0.57239886  0.20987482    -0.47110
C273        C  0.86380087  0.53902497  0.28574760     0.74480
O274        O  0.86215202  0.53387849  0.17917494    -0.58970
O275        O  0.86205178  0.51759041  0.27624899    -0.49060
O276        O  0.83635487  0.50406123  0.21352973    -0.55400
C277        C  0.88875302  0.49271341  0.21596736     0.84660
O278        O  0.92085470  0.54844929  0.24338432    -0.57290
O279        O  0.87213983  0.55678752  0.26392141    -0.60580
In280      In  0.09981367  0.63738929  0.22868547     1.36870
C281        C  0.14216560  0.65520820  0.26551425     0.77110
O282        O  0.07831141  0.59654590  0.25222462    -0.61340
O283        O  0.09852684  0.60172010  0.20656361    -0.52250
C284        C  0.04869403  0.62323688  0.22957481     0.69770
O285        O  0.06394625  0.63786975  0.25243131    -0.47110
C286        C  0.11479503  0.66635738  0.17585483     0.74480
O287        O  0.12105446  0.65391221  0.27676597    -0.58970
O288        O  0.11593748  0.64576540  0.17838824    -0.49060
O289        O  0.14272470  0.65169075  0.23521710    -0.55400
C290        C  0.08384781  0.58560023  0.22892905     0.84660
O291        O  0.06051874  0.61841564  0.20659139    -0.57290
O292        O  0.10859853  0.67436845  0.20193481    -0.60580
In293      In  0.88179156  0.52525760  0.97341091     1.36870
C294        C  0.83819759  0.49792776  0.01188827     0.77110
O295        O  0.86944400  0.54924558  0.44640275    -0.61340
O296        O  0.86674873  0.51453271  0.42399477    -0.52250
C297        C  0.93282156  0.56433483  0.97396246     0.69770
O298        O  0.91798118  0.55853099  0.99973398    -0.47110
C299        C  0.89386012  0.48881356  0.97711138     0.74480
O300        O  0.85543553  0.52276991  0.01771948    -0.58970
O301        O  0.89039427  0.49627742  0.45035093    -0.49060
O302        O  0.84251316  0.48886928  0.98572698    -0.55400
C303        C  0.86444102  0.53440788  0.42110325     0.84660
O304        O  0.92059922  0.55386426  0.44865620    -0.57290
O305        O  0.89459842  0.50264391  0.00168932    -0.60580
In306      In  0.09319946  0.61889875  0.49156770     1.36870
C307        C  0.13224563  0.63608953  0.44578898     0.77110
O308        O  0.11037776  0.65892236  0.01815436    -0.61340
O309        O  0.09801092  0.62359407  0.04494855    -0.52250
C310        C  0.04599975  0.61232865  0.48349562     0.69770
O311        O  0.06688172  0.62981730  0.46769001    -0.47110
C312        C  0.07978514  0.56789911  0.48795212     0.74480
O313        O  0.11078929  0.63514025  0.44162023    -0.58970
O314        O  0.09418292  0.58380392  0.51020940    -0.49060
O315        O  0.13494287  0.63116938  0.47440317    -0.55400
C316        C  0.10695626  0.64843698  0.04560932     0.84660
O317        O  0.04969114  0.59963673  0.50426608    -0.57290
O318        O  0.07229899  0.57798446  0.46809158    -0.60580
C319        C  0.53141755  0.20980921  0.09917818    -0.02960
C320        C  0.53233032  0.31473747  0.08311318    -0.02960
C321        C  0.75296450  0.43075671  0.10057544    -0.02960
C322        C  0.64504188  0.42553978  0.09383894    -0.02960
C323        C  0.74815184  0.32232425  0.10791903    -0.02960
C324        C  0.63837229  0.21458214  0.10846627    -0.02960
C325        C  0.67214859  0.26352301  0.13202884    -0.02320
C326        C  0.66659599  0.24263675  0.10872596     0.07360
C327        C  0.68897146  0.24818493  0.08777919    -0.02430
C328        C  0.71028942  0.27460484  0.08235380    -0.02440
C329        C  0.71803101  0.29546455  0.10697305     0.07490
C330        C  0.69606698  0.29002715  0.12918593    -0.02630
Br331      Br  0.69496752  0.31839054  0.15314453    -0.01180
Br332      Br  0.64813003  0.25589027  0.16998630    -0.01250
Br333      Br  0.72093048  0.27903428  0.03622042    -0.01210
Br334      Br  0.69851826  0.22225666  0.07381195    -0.01200
C335        C  0.73313529  0.37907856  0.08410364    -0.02320
C336        C  0.74831151  0.40123411  0.10616423     0.07360
C337        C  0.75652024  0.39391269  0.13419828    -0.02430
C338        C  0.75583650  0.36918237  0.13556033    -0.02440
C339        C  0.74652141  0.34945299  0.10881504     0.07490
C340        C  0.73168515  0.35393877  0.08590902    -0.02630
Br341      Br  0.70772893  0.32585766  0.05619291    -0.01180
Br342      Br  0.71071736  0.38118574  0.05293020    -0.01250
Br343      Br  0.76303226  0.36248560  0.17901784    -0.01210
Br344      Br  0.76379553  0.41419566  0.17522762    -0.01200
C345        C  0.69960052  0.40767341  0.11503419    -0.02320
C346        C  0.72504129  0.43003519  0.10326362     0.07360
C347        C  0.72396027  0.45281469  0.09508617    -0.02430
C348        C  0.69938373  0.45013587  0.08674890    -0.02440
C349        C  0.67288763  0.42569286  0.09347892     0.07490
C350        C  0.67461086  0.40539441  0.10985064    -0.02630
Br351      Br  0.64347868  0.37252198  0.12644163    -0.01180
Br352      Br  0.69796837  0.38281089  0.14639467    -0.01250
Br353      Br  0.70606070  0.48363709  0.06853620    -0.01210
Br354      Br  0.75538405  0.48990887  0.10042641    -0.01200
C355        C  0.61083949  0.37495016  0.06986992    -0.02320
C356        C  0.61555064  0.39668690  0.09195325     0.07360
C357        C  0.59036456  0.39311698  0.10510780    -0.02430
C358        C  0.56435992  0.36830672  0.10102651    -0.02440
C359        C  0.56117443  0.34449997  0.08469823     0.07490
C360        C  0.58442688  0.35150453  0.06431441    -0.02630
Br361      Br  0.58140235  0.32979659  0.02675882    -0.01180
Br362      Br  0.63974981  0.37318039  0.04808922    -0.01250
Br363      Br  0.53334298  0.37144745  0.11100679    -0.01210
Br364      Br  0.58821376  0.42233464  0.12659549    -0.01200
C365        C  0.58437171  0.23483873  0.11514929    -0.02320
C366        C  0.56140619  0.21468631  0.09720935     0.07360
C367        C  0.56796149  0.19862309  0.07675147    -0.02430
C368        C  0.58874363  0.19483657  0.08438307    -0.02440
C369        C  0.61217771  0.21576825  0.10124135     0.07490
C370        C  0.61012215  0.23827636  0.10964347    -0.02630
Br371      Br  0.63736834  0.27357267  0.09302004    -0.01180
Br372      Br  0.58594038  0.26312353  0.14147632    -0.01250
Br373      Br  0.57994198  0.15882065  0.07186493    -0.01210
Br374      Br  0.55802012  0.18958883  0.03206756    -0.01200
C375        C  0.50746242  0.26022276  0.08005469    -0.02320
C376        C  0.53207224  0.28702740  0.08332528     0.07360
C377        C  0.55517519  0.28586925  0.08798388    -0.02430
C378        C  0.55454748  0.26170310  0.08316172    -0.02440
C379        C  0.53086652  0.23615048  0.09062391     0.07490
C380        C  0.50645809  0.23597827  0.08746755    -0.02630
Br381      Br  0.47043131  0.20269081  0.08646465    -0.01180
Br382      Br  0.47398962  0.25326153  0.06197338    -0.01250
Br383      Br  0.58360746  0.26575087  0.05470418    -0.01210
Br384      Br  0.58799230  0.31381429  0.10629235    -0.01200
C385        C  0.80940282  0.45397391  0.04015947    -0.02320
C386        C  0.81446863  0.47969371  0.03307493     0.07360
C387        C  0.79277445  0.48319979  0.03649303    -0.02430
C388        C  0.76742365  0.46155857  0.04809100    -0.02440
C389        C  0.76547800  0.43968875  0.06408472     0.07490
C390        C  0.78302667  0.43280830  0.04887199    -0.02630
Br391      Br  0.76913504  0.41122055  0.00997566    -0.01180
Br392      Br  0.83607039  0.44508238  0.03113505    -0.01250
Br393      Br  0.73863899  0.45268561  0.02043658    -0.01210
Br394      Br  0.79582033  0.51465435  0.01892616    -0.01200
C395        C  0.97795710  0.60386272  0.99083161    -0.02320
C396        C  0.96249333  0.57936034  0.97345819     0.07360
C397        C  0.97565671  0.56843895  0.45598031    -0.02430
C398        C  0.00359409  0.58101024  0.45694531    -0.02440
C399        C  0.01868619  0.60437591  0.47605662     0.07490
C400        C  0.00624593  0.61664447  0.49198555    -0.02630
Br401      Br  0.02794738  0.65077505  0.51408236    -0.01180
Br402      Br  0.96071654  0.62013318  0.01350320    -0.01250
Br403      Br  0.02127478  0.56570388  0.43257092    -0.01210
Br404      Br  0.95565642  0.53424881  0.43275580    -0.01200
C405        C  0.13942280  0.68442107  0.12323117    -0.02320
C406        C  0.11624707  0.67642752  0.14325483     0.07360
C407        C  0.09133768  0.66596554  0.12888520    -0.02430
C408        C  0.08845519  0.65768063  0.09609986    -0.02440
C409        C  0.11118443  0.66306764  0.07669713     0.07490
C410        C  0.13697046  0.67818564  0.08964520    -0.02630
Br411      Br  0.16817707  0.68686374  0.06242305    -0.01180
Br412      Br  0.17380812  0.70095717  0.14293477    -0.01250
Br413      Br  0.05283207  0.63508740  0.07945129    -0.01210
Br414      Br  0.06013718  0.65859403  0.15539026    -0.01200
C415        C  0.83676595  0.52062530  0.33771852    -0.02320
C416        C  0.85843397  0.54275352  0.32062338     0.07360
C417        C  0.87832752  0.56521991  0.33839901    -0.02430
C418        C  0.87840413  0.56397432  0.37263021    -0.02440
C419        C  0.85862810  0.54028959  0.38910239     0.07490
C420        C  0.83700247  0.51930228  0.37180964    -0.02630
Br421      Br  0.80883812  0.48768189  0.39474318    -0.01180
Br422      Br  0.80757022  0.49116219  0.31414553    -0.01250
Br423      Br  0.90802646  0.59297737  0.39618924    -0.01210
Br424      Br  0.90778218  0.59611981  0.31594535    -0.01200
C425        C  0.82304099  0.48785457  0.13282585    -0.02320
C426        C  0.81735669  0.49795034  0.16134629     0.07360
C427        C  0.79016711  0.48662479  0.17116892    -0.02430
C428        C  0.76899225  0.46524180  0.15292373    -0.02440
C429        C  0.77485016  0.45343026  0.12454005     0.07490
C430        C  0.80281773  0.46321997  0.11921641    -0.02630
Br431      Br  0.81465369  0.43878112  0.11069028    -0.01180
Br432      Br  0.85926084  0.50538487  0.11431766    -0.01250
Br433      Br  0.73334467  0.44997654  0.17323197    -0.01210
Br434      Br  0.78231165  0.50115773  0.21012296    -0.01200
C435        C  0.97812265  0.61208906  0.23601231    -0.02320
C436        C  0.96248216  0.58563544  0.22303909     0.07360
C437        C  0.97537152  0.57232318  0.21206081    -0.02430
C438        C  0.00291835  0.58404928  0.21647502    -0.02440
C439        C  0.01894121  0.61066483  0.22915263     0.07490
C440        C  0.00638394  0.62476072  0.23868547    -0.02630
Br441      Br  0.02768797  0.66132200  0.25498515    -0.01180
Br442      Br  0.96077247  0.63069364  0.25027127    -0.01250
Br443      Br  0.01752564  0.56177930  0.20776959    -0.01210
Br444      Br  0.95543432  0.53791964  0.18962245    -0.01200
C445        C  0.09057818  0.53583353  0.46325122    -0.02320
C446        C  0.07349331  0.54019914  0.48376041     0.07360
C447        C  0.04955320  0.51791911  0.49733608    -0.02430
C448        C  0.04443279  0.49163215  0.49295093    -0.02440
C449        C  0.06167263  0.48758289  0.47211274     0.07490
C450        C  0.08303462  0.50947186  0.45492461    -0.02630
Br451      Br  0.10151536  0.50317572  0.41952992    -0.01180
Br452      Br  0.12577587  0.56558596  0.44975670    -0.01250
Br453      Br  0.01331709  0.46100557  0.51353981    -0.01210
Br454      Br  0.02438578  0.52354529  0.52216951    -0.01200
C455        C  0.90942856  0.43740542  0.00200144    -0.02320
C456        C  0.88861449  0.41430697  0.98637818     0.07360
C457        C  0.86954336  0.41579986  0.96932811    -0.02430
C458        C  0.87224046  0.44044757  0.96514561    -0.02440
C459        C  0.89353397  0.46394710  0.97966133     0.07490
C460        C  0.91177692  0.46239318  0.99889012    -0.02630
Br461      Br  0.94041301  0.49437710  0.01973720    -0.01180
Br462      Br  0.93463252  0.43480875  0.02689379    -0.01250
Br463      Br  0.84486676  0.44083832  0.94150949    -0.01210
Br464      Br  0.83819077  0.38355298  0.95348007    -0.01200
C465        C  0.78871812  0.32654043  0.02490734    -0.02320
C466        C  0.80193072  0.31388540  0.03325734     0.07360
C467        C  0.79311306  0.29903140  0.06190904    -0.02430
C468        C  0.77224635  0.29813129  0.08170316    -0.02440
C469        C  0.76507474  0.31821515  0.07854715     0.07490
C470        C  0.77554796  0.33331430  0.04905408    -0.02630
Br471      Br  0.77668422  0.36497023  0.03864361    -0.01180
Br472      Br  0.78228307  0.32955541  0.48059748    -0.01250
Br473      Br  0.75555523  0.26910707  0.11288091    -0.01210
Br474      Br  0.80765389  0.27768646  0.07218096    -0.01200
C475        C  0.95918412  0.36041541  0.44015994    -0.02320
C476        C  0.94451090  0.34397022  0.96728202     0.07360
C477        C  0.95664912  0.33463083  0.98661451    -0.02430
C478        C  0.98435802  0.34476094  0.98149246    -0.02440
C479        C  0.00016070  0.36533668  0.45853338     0.07490
C480        C  0.98705845  0.37147287  0.43608125    -0.02630
Br481      Br  0.00726924  0.39704945  0.40163769    -0.01180
Br482      Br  0.94124392  0.36874008  0.40921224    -0.01250
Br483      Br  0.00047863  0.32982986  0.00485139    -0.01210
Br484      Br  0.93615378  0.31005698  0.02168186    -0.01200
C485        C  0.06692593  0.51703692  0.25572220    -0.02320
C486        C  0.07140665  0.50701586  0.22585343     0.07360
C487        C  0.07257560  0.51942368  0.19650871    -0.02430
C488        C  0.07480774  0.54439895  0.19738310    -0.02440
C489        C  0.07465858  0.55657933  0.22764389     0.07490
C490        C  0.06698747  0.54099083  0.25622754    -0.02630
Br491      Br  0.05382194  0.55020607  0.29531294    -0.01180
Br492      Br  0.06173841  0.49922728  0.29649235    -0.01250
Br493      Br  0.07561845  0.56041107  0.15670058    -0.01210
Br494      Br  0.06935596  0.50163691  0.15478844    -0.01200
C495        C  0.08001275  0.39590972  0.08117848    -0.02320
C496        C  0.10028686  0.41766793  0.06233998     0.07360
C497        C  0.12282043  0.43925508  0.07769858    -0.02430
C498        C  0.12297335  0.44117723  0.11184955    -0.02440
C499        C  0.10071781  0.42132716  0.13052939     0.07490
C500        C  0.08045221  0.39753031  0.11539455    -0.02630
Br501      Br  0.05126634  0.36893205  0.14127855    -0.01180
Br502      Br  0.04932193  0.36602719  0.06078525    -0.01250
Br503      Br  0.15257374  0.47195856  0.13325857    -0.01210
Br504      Br  0.15232602  0.46728476  0.05185349    -0.01200
C505        C  0.89399199  0.43473360  0.18317312    -0.02320
C506        C  0.89793673  0.42604824  0.21264236     0.07360
C507        C  0.90716144  0.44396888  0.23952739    -0.02430
C508        C  0.90656662  0.46741477  0.23931011    -0.02440
C509        C  0.89632492  0.47264830  0.21236455     0.07490
C510        C  0.89260869  0.45782222  0.18316873    -0.02630
Br511      Br  0.88435439  0.46781763  0.14355063    -0.01180
Br512      Br  0.89054941  0.41567237  0.14283426    -0.01250
Br513      Br  0.92077322  0.49276308  0.27541459    -0.01210
Br514      Br  0.92139547  0.43678052  0.27618886    -0.01200
C515        C  0.85536501  0.29764524  0.33094292    -0.02320
C516        C  0.84258324  0.30945407  0.31777499     0.07360
C517        C  0.82744214  0.31641138  0.33845574    -0.02430
C518        C  0.82875818  0.31575547  0.37225652    -0.02440
C519        C  0.84573561  0.30886678  0.38542058     0.07490
C520        C  0.85758237  0.29802742  0.36495734    -0.02630
Br521      Br  0.87973912  0.28719182  0.38293997    -0.01180
Br522      Br  0.87193054  0.28332546  0.30270007    -0.01250
Br523      Br  0.80830936  0.32566227  0.40039387    -0.01210
Br524      Br  0.80632638  0.32864357  0.32042812    -0.01200
C525        C  0.77807107  0.30729331  0.18320238    -0.02320
C526        C  0.80503786  0.32095359  0.17180416     0.07360
C527        C  0.81289084  0.33698662  0.14435582    -0.02430
C528        C  0.79521164  0.34279654  0.13163903    -0.02440
C529        C  0.76646796  0.32472586  0.13683313     0.07490
C530        C  0.75849841  0.30823365  0.16570132    -0.02630
Br531      Br  0.72406063  0.29186125  0.18829807    -0.01180
Br532      Br  0.76824414  0.28593982  0.22226136    -0.01250
Br533      Br  0.81184000  0.37535282  0.10632709    -0.01210
Br534      Br  0.84733981  0.34962538  0.12240090    -0.01200
C535        C  0.95693259  0.35848289  0.24962670    -0.02320
C536        C  0.94312536  0.35591445  0.22139394     0.07360
C537        C  0.95737223  0.36485840  0.19120910    -0.02430
C538        C  0.98558915  0.37827686  0.18975243    -0.02440
C539        C  0.99970007  0.38295373  0.21857012     0.07490
C540        C  0.98517132  0.37194197  0.24829239    -0.02630
Br541      Br  0.00360551  0.37822736  0.28831245    -0.01180
Br542      Br  0.93730481  0.34536746  0.29088606    -0.01250
Br543      Br  0.00470115  0.39174130  0.14818847    -0.01210
Br544      Br  0.93887273  0.36248786  0.15255100    -0.01200
C545        C  0.51565392  0.17174378  0.17873825    -0.02320
C546        C  0.48824393  0.15271577  0.17161351     0.07360
C547        C  0.47527477  0.16223763  0.15379786    -0.02430
C548        C  0.49048917  0.18886305  0.14209161    -0.02440
C549        C  0.51835422  0.20084483  0.13566684     0.07490
C550        C  0.53027422  0.19708334  0.16255971    -0.02630
Br551      Br  0.54418952  0.22531411  0.19533217    -0.01180
Br552      Br  0.53034864  0.16653170  0.21686523    -0.01250
Br553      Br  0.48088188  0.21170758  0.16524596    -0.01210
Br554      Br  0.43702734  0.14183571  0.14854013    -0.01200
C555        C  0.35768189  0.95625531  0.18536014    -0.02320
C556        C  0.35279075  0.94269980  0.21496942     0.07360
C557        C  0.35972784  0.95744068  0.24443364    -0.02430
C558        C  0.37411947  0.98587241  0.24397621    -0.02440
C559        C  0.38252349  0.99968674  0.21389468     0.07490
C560        C  0.37276369  0.98472810  0.18465937    -0.02630
Br561      Br  0.38301068  0.00265553  0.14314994    -0.01180
Br562      Br  0.34571084  0.93553600  0.14533740    -0.01250
Br563      Br  0.38395814  0.00587708  0.28474883    -0.01210
Br564      Br  0.35284645  0.93888386  0.28499448    -0.01200
C565        C  0.45533838  0.07236279  0.33020453    -0.02320
C566        C  0.44874976  0.08760107  0.31171961     0.07360
C567        C  0.43772908  0.10132645  0.32784283    -0.02430
C568        C  0.43361651  0.10008831  0.36211994    -0.02440
C569        C  0.44042431  0.08504592  0.38057733     0.07490
C570        C  0.45104524  0.07094806  0.36428765    -0.02630
Br571      Br  0.45784645  0.04753966  0.38795738    -0.01180
Br572      Br  0.46841826  0.05138822  0.30903175    -0.01250
Br573      Br  0.41949082  0.11982898  0.38364254    -0.01210
Br574      Br  0.42915496  0.12275739  0.30319846    -0.01200
C575        C  0.47668389  0.13682227  0.06785598    -0.02320
C576        C  0.46734059  0.14179181  0.03969793     0.07360
C577        C  0.48168897  0.16830143  0.02771867    -0.02430
C578        C  0.50462443  0.18943447  0.04351195    -0.02440
C579        C  0.51215322  0.18556181  0.07469397     0.07490
C580        C  0.49996770  0.15785351  0.08319599    -0.02630
Br581      Br  0.51822641  0.14656675  0.10918096    -0.01180
Br582      Br  0.45876991  0.10075432  0.08535030    -0.01250
Br583      Br  0.52654654  0.22155519  0.01794319    -0.01210
Br584      Br  0.46841519  0.17595456  0.49032604    -0.01200
C585        C  0.30793367  0.84487876  0.05982708    -0.02320
C586        C  0.33200129  0.86357995  0.04246417     0.07360
C587        C  0.35536267  0.88178110  0.05966991    -0.02430
C588        C  0.35504264  0.88044743  0.09363943    -0.02440
C589        C  0.33128055  0.86115901  0.11094647     0.07490
C590        C  0.30757459  0.84375649  0.09413652    -0.02630
Br591      Br  0.27514039  0.81757239  0.11792997    -0.01180
Br592      Br  0.27587583  0.81989542  0.03674974    -0.01250
Br593      Br  0.38732498  0.90626775  0.11641704    -0.01210
Br594      Br  0.38783955  0.91015485  0.53730910    -0.01200
C595        C  0.35133709  0.98883671  0.44468836    -0.02320
C596        C  0.35953181  0.99847437  0.47665656     0.07360
C597        C  0.35147075  0.97991004  0.50199663    -0.02430
C598        C  0.33846630  0.95214579  0.49479047    -0.02440
C599        C  0.33419185  0.94293135  0.46209558     0.07490
C600        C  0.33875364  0.96099439  0.43736942    -0.02630
Br601      Br  0.33187584  0.94823378  0.39287749    -0.01180
Br602      Br  0.36143433  0.01417410  0.41003684    -0.01250
Br603      Br  0.32996629  0.92702142  0.52926422    -0.01210
Br604      Br  0.36178910  0.99329320  0.04575300    -0.01200
C605        C  0.51380516  0.02030767  0.19481153    -0.02320
C606        C  0.53492093  0.03489046  0.17171722     0.07360
C607        C  0.52986219  0.04480899  0.14412824    -0.02430
C608        C  0.50806421  0.04844049  0.14569756    -0.02440
C609        C  0.49105555  0.04040574  0.17400951     0.07490
C610        C  0.49168248  0.02303211  0.19596641    -0.02630
Br611      Br  0.46344981  0.00506418  0.22917084    -0.01180
Br612      Br  0.51698180  0.99923485  0.22669150    -0.01250
Br613      Br  0.50342959  0.06677848  0.11133151    -0.01210
Br614      Br  0.55361107  0.05518605  0.10591146    -0.01200
C615        C  0.60283948  0.14390744  0.14327457    -0.02320
C616        C  0.62892291  0.14185525  0.14625351     0.07360
C617        C  0.65876193  0.16882376  0.14461839    -0.02430
C618        C  0.66260869  0.19811876  0.14269380    -0.02440
C619        C  0.63591836  0.20032705  0.13937267     0.07490
C620        C  0.60615183  0.17270669  0.14138993    -0.02630
Br621      Br  0.57670074  0.17536646  0.15762873    -0.01180
Br622      Br  0.56711096  0.11323700  0.15072382    -0.01250
Br623      Br  0.69549403  0.22768168  0.15934129    -0.01210
Br624      Br  0.68935937  0.16666392  0.15171229    -0.01200
C625        C  0.46314821  0.90402395  0.24412361    -0.02320
C626        C  0.46461509  0.88243195  0.23111977     0.07360
C627        C  0.44174261  0.85935694  0.21870568    -0.02430
C628        C  0.41825207  0.85902450  0.21529773    -0.02440
C629        C  0.41725375  0.88155431  0.22573032     0.07490
C630        C  0.43917828  0.90352003  0.24171453    -0.02630
Br631      Br  0.43724010  0.93361805  0.25768605    -0.01180
Br632      Br  0.49409836  0.93409585  0.26424486    -0.01250
Br633      Br  0.38774717  0.82763779  0.19547508    -0.01210
Br634      Br  0.44296434  0.82836648  0.20537098    -0.01200
C635        C  0.60883557  0.99570797  0.17344751    -0.02320
C636        C  0.61896959  0.01191319  0.20167323     0.07360
C637        C  0.62018554  0.00037272  0.23044811    -0.02430
C638        C  0.60851961  0.97229443  0.23212434    -0.02440
C639        C  0.59550602  0.95565973  0.20507621     0.07490
C640        C  0.59675341  0.96756781  0.17525046    -0.02630
Br641      Br  0.57743433  0.94521008  0.13842557    -0.01180
Br642      Br  0.60723330  0.01125669  0.13373021    -0.01250
Br643      Br  0.60829855  0.95621171  0.27221093    -0.01210
Br644      Br  0.63588118  0.02282490  0.26841936    -0.01200
C645        C  0.54062300  0.10155174  0.49689949    -0.02320
C646        C  0.54331331  0.07939185  0.49970561     0.07360
C647        C  0.52045894  0.05441881  0.01162175    -0.02430
C648        C  0.49480659  0.05066409  0.01460544    -0.02440
C649        C  0.49202643  0.07202642  0.00700655     0.07490
C650        C  0.51516088  0.09756831  0.50002057    -0.02630
Br651      Br  0.51110121  0.12721153  0.49203628    -0.01180
Br652      Br  0.57146478  0.13722225  0.48648820    -0.01250
Br653      Br  0.46333083  0.01616436  0.02637030    -0.01210
Br654      Br  0.52433116  0.02447150  0.01795930    -0.01200
C655        C  0.65245195  0.10563409  0.31625803    -0.02320
C656        C  0.63452396  0.10935164  0.29920147     0.07360
C657        C  0.62067036  0.11972209  0.31656800    -0.02430
C658        C  0.62210716  0.12312908  0.35080459    -0.02440
C659        C  0.63715487  0.11589349  0.36847266     0.07490
C660        C  0.65365880  0.10873662  0.35070075    -0.02630
Br661      Br  0.67663502  0.10125388  0.37332579    -0.01180
Br662      Br  0.67422968  0.09457905  0.29303294    -0.01250
Br663      Br  0.60363731  0.13830430  0.37341965    -0.01210
Br664      Br  0.60000782  0.12991872  0.29328768    -0.01200
C665        C  0.63401421  0.14986389  0.07610862    -0.02320
C666        C  0.63962642  0.15605651  0.04165497     0.07360
C667        C  0.64561542  0.18132626  0.52990839    -0.02430
C668        C  0.64194103  0.19819308  0.05121339    -0.02440
C669        C  0.63858136  0.19386452  0.08520855     0.07490
C670        C  0.63480789  0.16967192  0.10034541    -0.02630
Br671      Br  0.63075083  0.17396418  0.19031856    -0.01180
Br672      Br  0.62320686  0.11320390  0.08564342    -0.01250
Br673      Br  0.64405866  0.22922348  0.53186890    -0.01210
Br674      Br  0.66043568  0.19375763  0.48608700    -0.01200
C675        C  0.44070436  0.93557158  0.43825204    -0.02320
C676        C  0.42243143  0.92142659  0.41360009     0.07360
C677        C  0.43079712  0.91255426  0.38608558    -0.02430
C678        C  0.45234293  0.90896395  0.38866995    -0.02440
C679        C  0.46654095  0.91677259  0.41785120     0.07490
C680        C  0.46278904  0.93306858  0.44067519    -0.02630
Br681      Br  0.48689800  0.95068984  0.47599905    -0.01180
Br682      Br  0.43350230  0.95602946  0.46993860    -0.01250
Br683      Br  0.45973217  0.89081844  0.35401849    -0.01210
Br684      Br  0.41184671  0.90413431  0.34626593    -0.01200
C685        C  0.49784579  0.85001898  0.09336769    -0.02320
C686        C  0.52368339  0.86350303  0.10632233     0.07360
C687        C  0.54669559  0.87517327  0.08511708    -0.02430
C688        C  0.54401570  0.87673285  0.05156402    -0.02440
C689        C  0.51815205  0.86595002  0.03916821     0.07490
C690        C  0.49505165  0.85104162  0.05986136    -0.02630
Br691      Br  0.45941505  0.83169840  0.04249419    -0.01180
Br692      Br  0.46610280  0.82981497  0.12152260    -0.01250
Br693      Br  0.57635657  0.89588984  0.52406865    -0.01210
Br694      Br  0.58208596  0.89078913  0.10205923    -0.01200
C695        C  0.58538953  0.97889065  0.48763036    -0.02320
C696        C  0.57879508  0.96624949  0.45652316     0.07360
C697        C  0.58952954  0.98217926  0.42824847    -0.02430
C698        C  0.60419080  0.01052086  0.43118446    -0.02440
C699        C  0.60831913  0.02294037  0.46218501     0.07490
C700        C  0.60004361  0.00722395  0.49039342    -0.02630
Br701      Br  0.60473860  0.02351650  0.03486921    -0.01180
Br702      Br  0.57134592  0.95664666  0.02769015    -0.01250
Br703      Br  0.61577687  0.03244927  0.39264777    -0.01210
Br704      Br  0.58075074  0.96567342  0.38538826    -0.01200
C705        C  0.19297494  0.51522174  0.40409442    -0.02320
C706        C  0.19173129  0.50981095  0.36942489     0.07360
C707        C  0.17357299  0.48147703  0.36202996    -0.02430
C708        C  0.15102835  0.46428282  0.38258929    -0.02440
C709        C  0.14956374  0.47199223  0.41491033     0.07490
C710        C  0.17218135  0.49633930  0.42624667    -0.02630
Br711      Br  0.17444036  0.50392564  0.47268639    -0.01180
Br712      Br  0.21934326  0.54864600  0.42391341    -0.01250
Br713      Br  0.12203014  0.43033317  0.36525919    -0.01210
Br714      Br  0.18162065  0.46264666  0.32916425    -0.01200
C715        C  0.13947021  0.48751180  0.30766835    -0.02320
C716        C  0.14296175  0.47502206  0.27972686     0.07360
C717        C  0.16929979  0.48623326  0.26601536    -0.02430
C718        C  0.19114625  0.51016266  0.27934045    -0.02440
C719        C  0.18783142  0.51908562  0.31070194     0.07490
C720        C  0.16126436  0.51262155  0.31723597    -0.02630
Br721      Br  0.15562875  0.53985612  0.30471230    -0.01180
Br722      Br  0.10447208  0.47642035  0.32667499    -0.01250
Br723      Br  0.21413325  0.53548885  0.24612960    -0.01210
Br724      Br  0.17556020  0.46955790  0.22808987    -0.01200
C725        C  0.25781102  0.55498245  0.36013895    -0.02320
C726        C  0.23744111  0.53601912  0.33820482     0.07360
C727        C  0.24325823  0.51670211  0.32444406    -0.02430
C728        C  0.26479410  0.51508766  0.33494217    -0.02440
C729        C  0.28719526  0.53758104  0.35117906     0.07490
C730        C  0.27868252  0.55226952  0.36998198    -0.02630
Br731      Br  0.28186374  0.55505095  0.41669047    -0.01180
Br732      Br  0.26457598  0.58973530  0.37396460    -0.01250
Br733      Br  0.25869133  0.47892534  0.32995120    -0.01210
Br734      Br  0.23401458  0.50022424  0.28171775    -0.01200
C735        C  0.34550718  0.78765134  0.29029031    -0.02320
C736        C  0.32339153  0.76103944  0.29430501     0.07360
C737        C  0.30372732  0.75314433  0.27010052    -0.02430
C738        C  0.30240749  0.77338343  0.25365241    -0.02440
C739        C  0.32012706  0.80107743  0.26175059     0.07490
C740        C  0.34121614  0.80770918  0.28227524    -0.02630
Br741      Br  0.36879036  0.84411867  0.29360209    -0.01180
Br742      Br  0.37715939  0.79247807  0.26829556    -0.01250
Br743      Br  0.27541257  0.76328385  0.22208100    -0.01210
Br744      Br  0.28016606  0.71629520  0.25648356    -0.01200
C745        C  0.34824836  0.79359747  0.36078444    -0.02320
C746        C  0.32405901  0.76705051  0.35625575     0.07360
C747        C  0.30251865  0.76249309  0.37884750    -0.02430
C748        C  0.30063754  0.78407998  0.39182769    -0.02440
C749        C  0.32328213  0.81035898  0.39117417     0.07490
C750        C  0.34766008  0.81402781  0.37937725    -0.02630
Br751      Br  0.38073809  0.84596558  0.39348559    -0.01180
Br752      Br  0.38410369  0.80437330  0.34639978    -0.01250
Br753      Br  0.26784212  0.77733111  0.41378857    -0.01210
Br754      Br  0.28155860  0.73028117  0.40355631    -0.01200
C755        C  0.17859520  0.65710915  0.42083351    -0.02320
C756        C  0.15093450  0.63874372  0.41861814     0.07360
C757        C  0.14150112  0.61808895  0.39512139    -0.02430
C758        C  0.15979204  0.61547752  0.37423608    -0.02440
C759        C  0.18831576  0.63640464  0.37230510     0.07490
C760        C  0.19700672  0.65483387  0.39979601    -0.02630
Br761      Br  0.23140849  0.66999901  0.91825604    -0.01180
Br762      Br  0.19119161  0.68523855  0.95400381    -0.01250
Br763      Br  0.14410663  0.57930296  0.35637962    -0.01210
Br764      Br  0.10287970  0.59123523  0.39424446    -0.01200
C765        C  0.16767694  0.61947468  0.30458878    -0.02320
C766        C  0.19521455  0.63763375  0.30881781     0.07360
C767        C  0.20583294  0.65905835  0.28554220    -0.02430
C768        C  0.18946675  0.66868888  0.27666415    -0.02440
C769        C  0.16168240  0.65404532  0.28564113     0.07490
C770        C  0.15150224  0.63003805  0.30283948    -0.02630
Br771      Br  0.11382648  0.60680426  0.31299530    -0.01180
Br772      Br  0.15882439  0.59232209  0.27161645    -0.01250
Br773      Br  0.20427961  0.69957120  0.24869264    -0.01210
Br774      Br  0.22323499  0.65592156  0.24637430    -0.01200
C775        C  0.22562126  0.60597869  0.31937702    -0.02320
C776        C  0.21129034  0.61209085  0.34388683     0.07360
C777        C  0.20076637  0.59318114  0.37031596    -0.02430
C778        C  0.19565347  0.56680765  0.36643945    -0.02440
C779        C  0.21054673  0.56067151  0.34337446     0.07490
C780        C  0.22675634  0.58213831  0.32033172    -0.02630
Br781      Br  0.25499961  0.58265645  0.29298001    -0.01180
Br782      Br  0.24912434  0.63219684  0.28737914    -0.01250
Br783      Br  0.16280405  0.53992237  0.38828367    -0.01210
Br784      Br  0.19755560  0.60192152  0.41549885    -0.01200
C785        C  0.26212231  0.66913378  0.34895643    -0.02320
C786        C  0.23740257  0.66685971  0.34368645     0.07360
C787        C  0.24042500  0.69235206  0.33870110    -0.02430
C788        C  0.26621744  0.71662465  0.33173044    -0.02440
C789        C  0.29133147  0.71745068  0.33110052     0.07490
C790        C  0.28750219  0.69167285  0.33825833    -0.02630
Br791      Br  0.31360774  0.68156712  0.33137471    -0.01180
Br792      Br  0.26374195  0.64564793  0.37899092    -0.01250
Br793      Br  0.26487546  0.74837337  0.32391413    -0.01210
Br794      Br  0.20966439  0.69593589  0.34613275    -0.01200
C795        C  0.38021203  0.61882312  0.36940930    -0.02320
C796        C  0.40147183  0.62157204  0.34805908     0.07360
C797        C  0.39374137  0.59771888  0.32950982    -0.02430
C798        C  0.36660606  0.57741096  0.32463655    -0.02440
C799        C  0.34443378  0.57292617  0.34667729     0.07490
C800        C  0.35250827  0.59706266  0.36586194    -0.02630
Br801      Br  0.32846100  0.60827016  0.37848700    -0.01180
Br802      Br  0.38872688  0.64342883  0.40656870    -0.01250
Br803      Br  0.36519909  0.56634814  0.27941187    -0.01210
Br804      Br  0.41720705  0.58460431  0.32035247    -0.01200
C805        C  0.44517405  0.77144692  0.26347425    -0.02320
C806        C  0.45043625  0.76712443  0.29597370     0.07360
C807        C  0.47926768  0.77936590  0.30110945    -0.02430
C808        C  0.49935265  0.80024268  0.28081025    -0.02440
C809        C  0.49259887  0.80458480  0.25069527     0.07490
C810        C  0.46656757  0.78588048  0.24035341    -0.02630
Br811      Br  0.46059950  0.77838882  0.19409465    -0.01180
Br812      Br  0.41225965  0.76380976  0.24659564    -0.01250
Br813      Br  0.53647324  0.82187932  0.29352689    -0.01210
Br814      Br  0.49361425  0.77031930  0.33633144    -0.01200
C815        C  0.46975483  0.79413128  0.40426906    -0.02320
C816        C  0.48121174  0.82037440  0.39247494     0.07360
C817        C  0.47479720  0.82395598  0.36187823    -0.02430
C818        C  0.45394527  0.80201252  0.34529764    -0.02440
C819        C  0.44462693  0.77451786  0.35350153     0.07490
C820        C  0.45260897  0.77119747  0.38461726    -0.02630
Br821      Br  0.43606751  0.73706286  0.40574713    -0.01180
Br822      Br  0.47804587  0.79017361  0.44777179    -0.01250
Br823      Br  0.43965695  0.81159507  0.31085372    -0.01210
Br824      Br  0.49502601  0.85932092  0.34222609    -0.01200
C825        C  0.38610804  0.75225043  0.35594970    -0.02320
C826        C  0.39873384  0.74665281  0.32766672     0.07360
C827        C  0.37947266  0.73152687  0.30334621    -0.02430
C828        C  0.35656426  0.73378695  0.29999472    -0.02440
C829        C  0.34576558  0.74172233  0.32721005     0.07490
C830        C  0.35862586  0.74432342  0.35635476    -0.02630
Br831      Br  0.33782216  0.73212369  0.39700897    -0.01180
Br832      Br  0.40123109  0.76910348  0.39759067    -0.01250
Br833      Br  0.33810559  0.72047696  0.25981117    -0.01210
Br834      Br  0.38132589  0.70447862  0.27708924    -0.01200
C835        C  0.40648775  0.69974746  0.34704054    -0.02320
C836        C  0.42717447  0.72328167  0.32961856     0.07360
C837        C  0.44450983  0.71718249  0.31055371    -0.02430
C838        C  0.44974473  0.69800428  0.32120119    -0.02440
C839        C  0.42922405  0.67442905  0.33860488     0.07490
C840        C  0.40503914  0.67487498  0.34318959    -0.02630
Br841      Br  0.37274243  0.64990194  0.32002078    -0.01180
Br842      Br  0.37610199  0.69631005  0.37177012    -0.01250
Br843      Br  0.48520320  0.70681501  0.30755977    -0.01210
Br844      Br  0.44945242  0.72058078  0.26352787    -0.01200
C845        C  0.30814694  0.50131704  0.27065723    -0.02320
C846        C  0.31583189  0.48377444  0.28027347     0.07360
C847        C  0.32668852  0.48762741  0.31088739    -0.02430
C848        C  0.33138428  0.50954905  0.33067368    -0.02440
C849        C  0.31883497  0.52385838  0.32518572     0.07490
C850        C  0.30929616  0.52114114  0.29275429    -0.02630
Br851      Br  0.30232951  0.54721662  0.27586535    -0.01180
Br852      Br  0.29566548  0.49770559  0.22724456    -0.01250
Br853      Br  0.36219975  0.52482111  0.35695123    -0.01210
Br854      Br  0.33749082  0.46415305  0.32503005    -0.01200
C855        C  0.50529566  0.32717636  0.16763237    -0.02320
C856        C  0.47971765  0.32060884  0.15694570     0.07360
C857        C  0.47119289  0.30679756  0.12684798    -0.02430
C858        C  0.48507337  0.29537960  0.11375892    -0.02440
C859        C  0.51346832  0.31122164  0.11454327     0.07490
C860        C  0.52226266  0.32219489  0.14642884    -0.02630
Br861      Br  0.55552277  0.32950383  0.16222269    -0.01180
Br862      Br  0.51892949  0.34606741  0.20846645    -0.01250
Br863      Br  0.46932326  0.26223079  0.13847112    -0.01210
Br864      Br  0.43592582  0.29292306  0.11100891    -0.01200
C865        C  0.35907431  0.35021959  0.18276302    -0.02320
C866        C  0.36749822  0.34662170  0.21248222     0.07360
C867        C  0.35748189  0.35166958  0.24208779    -0.02430
C868        C  0.34196317  0.36325486  0.24202898    -0.02440
C869        C  0.33647633  0.37015354  0.21224254     0.07490
C870        C  0.34357723  0.36189385  0.18267226    -0.02630
Br871      Br  0.33360680  0.36818096  0.14164132    -0.01180
Br872      Br  0.37144836  0.34242315  0.14195840    -0.01250
Br873      Br  0.33162173  0.37281830  0.28320635    -0.01210
Br874      Br  0.36645203  0.34435876  0.28325814    -0.01200
C875        C  0.33157916  0.47201380  0.07706808    -0.02320
C876        C  0.32387560  0.44883519  0.05761724     0.07360
C877        C  0.30870141  0.42301602  0.07198408    -0.02430
C878        C  0.30412914  0.42077725  0.10606579    -0.02440
C879        C  0.31565327  0.44431628  0.12579789     0.07490
C880        C  0.32761914  0.46976147  0.11110580    -0.02630
Br881      Br  0.33918870  0.50166549  0.13785154    -0.01180
Br882      Br  0.34809687  0.50701248  0.05725192    -0.01250
Br883      Br  0.28421620  0.38546432  0.12553982    -0.01210
Br884      Br  0.29703317  0.39068669  0.54599678    -0.01200
C885        C  0.30412074  0.48484751  0.40374892    -0.02320
C886        C  0.32529240  0.49649204  0.42557377     0.07360
C887        C  0.33683514  0.52428615  0.43396279    -0.02430
C888        C  0.33265003  0.54097120  0.41423245    -0.02440
C889        C  0.31502094  0.52909989  0.38744886     0.07490
C890        C  0.29586372  0.50092419  0.39147686    -0.02630
Br891      Br  0.26024905  0.48945854  0.40880677    -0.01180
Br892      Br  0.28263468  0.44674727  0.39389028    -0.01250
Br893      Br  0.34361406  0.57571417  0.43305615    -0.01210
Br894      Br  0.35624211  0.53938005  0.47390403    -0.01200
C895        C  0.43665850  0.28949710  0.34540026    -0.02320
C896        C  0.41735487  0.29012550  0.36643371     0.07360
C897        C  0.39356990  0.28562029  0.35350618    -0.02430
C898        C  0.39164820  0.28552380  0.31943778    -0.02440
C899        C  0.41382401  0.29095479  0.29886565     0.07490
C900        C  0.43505428  0.29025534  0.31156247    -0.02630
Br901      Br  0.46349606  0.29362071  0.28255898    -0.01180
Br902      Br  0.46687027  0.29072814  0.36317173    -0.01250
Br903      Br  0.36037048  0.28154880  0.30116177    -0.01210
Br904      Br  0.36571332  0.28413105  0.38188886    -0.01200
C905        C  0.48801940  0.32883064  0.03933201    -0.02320
C906        C  0.47791457  0.31090015  0.01255584     0.07360
C907        C  0.49087672  0.29728161  0.00267082    -0.02430
C908        C  0.51159728  0.29965777  0.02170738    -0.02440
C909        C  0.51897558  0.31610468  0.05111484     0.07490
C910        C  0.51288746  0.33595548  0.05034743    -0.02630
Br911      Br  0.54039262  0.36789330  0.52793015    -0.01180
Br912      Br  0.47536100  0.35185005  0.55280454    -0.01250
Br913      Br  0.52590616  0.27829050  0.00633386    -0.01210
Br914      Br  0.47828081  0.27351770  0.96489498    -0.01200
C915        C  0.36828344  0.35416304  0.46289653    -0.02320
C916        C  0.39655433  0.36707997  0.46132027     0.07360
C917        C  0.41303021  0.39543051  0.46433452    -0.02430
C918        C  0.40152300  0.41045071  0.47186898    -0.02440
C919        C  0.37337968  0.39809855  0.47006173     0.07490
C920        C  0.35670846  0.36983086  0.46574410    -0.02630
Br921      Br  0.31817705  0.35258875  0.46571441    -0.01180
Br922      Br  0.34569641  0.31542375  0.45893444    -0.01250
Br923      Br  0.42516977  0.44788475  0.48534794    -0.01210
Br924      Br  0.45157134  0.41460809  0.45620959    -0.01200
C925        C  0.45435797  0.49488716  0.21955768    -0.02320
C926        C  0.46109848  0.51615347  0.24200383     0.07360
C927        C  0.44652651  0.51042770  0.27214646    -0.02430
C928        C  0.42171477  0.48565129  0.27572786    -0.02440
C929        C  0.41129805  0.46848038  0.24845559     0.07490
C930        C  0.42919048  0.47069717  0.22300450    -0.02630
Br931      Br  0.41716936  0.44223703  0.19065431    -0.01180
Br932      Br  0.47781036  0.50022555  0.18213581    -0.01250
Br933      Br  0.40171816  0.47577968  0.31668164    -0.01210
Br934      Br  0.45790158  0.53727126  0.30632251    -0.01200
C935        C  0.44077265  0.64131794  0.28367905    -0.02320
C936        C  0.44884979  0.64558599  0.31708290     0.07360
C937        C  0.47186476  0.64367686  0.32202455    -0.02430
C938        C  0.47906964  0.62989452  0.29967626    -0.02440
C939        C  0.47097251  0.62608590  0.26765706     0.07490
C940        C  0.45266591  0.63282336  0.25926919    -0.02630
Br941      Br  0.44377729  0.62995928  0.21396808    -0.01180
Br942      Br  0.41378505  0.64645790  0.26865555    -0.01250
Br943      Br  0.50208614  0.61799899  0.31290688    -0.01210
Br944      Br  0.50525899  0.67203867  0.33942261    -0.01200
C945        C  0.53973703  0.44508276  0.25340932    -0.02320
C946        C  0.54637840  0.46579821  0.23134458     0.07360
C947        C  0.52777708  0.46193097  0.20822708    -0.02430
C948        C  0.50284061  0.43715138  0.20661793    -0.02440
C949        C  0.49655556  0.41617808  0.22804853     0.07490
C950        C  0.51492521  0.42034311  0.25174924    -0.02630
Br951      Br  0.50788483  0.39133843  0.27987270    -0.01180
Br952      Br  0.56567578  0.44894874  0.28366423    -0.01250
Br953      Br  0.47740910  0.43214636  0.17503025    -0.01210
Br954      Br  0.53644249  0.49049399  0.17858583    -0.01200
C955        C  0.66748121  0.47037411  0.12746878    -0.02320
C956        C  0.64843122  0.44218798  0.12704762     0.07360
C957        C  0.63601441  0.43264358  0.15897923    -0.02430
C958        C  0.63503796  0.45116268  0.18168735    -0.02440
C959        C  0.64438180  0.47793607  0.17155019     0.07490
C960        C  0.65917009  0.48654674  0.14155779    -0.02630
Br961      Br  0.67703022  0.52275236  0.12527422    -0.01180
Br962      Br  0.69979908  0.48138954  0.15021220    -0.01250
Br963      Br  0.62091638  0.43929840  0.22575120    -0.01210
Br964      Br  0.61676451  0.39574153  0.17278244    -0.01200
C965        C  0.58219412  0.58939315  0.17247544    -0.02320
C966        C  0.57617622  0.60065553  0.19999498     0.07360
C967        C  0.59219463  0.60845196  0.22750033    -0.02430
C968        C  0.61115863  0.60117871  0.22921747    -0.02440
C969        C  0.61316978  0.58506140  0.20434135     0.07490
C970        C  0.60030089  0.58108329  0.17478312    -0.02630
Br971      Br  0.60421943  0.56116120  0.13880470    -0.01180
Br972      Br  0.56446595  0.58392614  0.13201652    -0.01250
Br973      Br  0.63310240  0.61159000  0.26683711    -0.01210
Br974      Br  0.58610877  0.62578278  0.26476132    -0.01200
C975        C  0.47467738  0.52491884  0.40003898    -0.02320
C976        C  0.47717215  0.54975600  0.39556654     0.07360
C977        C  0.45394840  0.54982413  0.39192417    -0.02430
C978        C  0.42947427  0.52852612  0.40460261    -0.02440
C979        C  0.42686719  0.50429703  0.41263153     0.07490
C980        C  0.44887303  0.50146918  0.40610548    -0.02630
Br981      Br  0.44380987  0.46644527  0.40543890    -0.01180
Br982      Br  0.50660208  0.52388297  0.39966776    -0.01250
Br983      Br  0.40183739  0.53479396  0.41727389    -0.01210
Br984      Br  0.45712808  0.58139631  0.37578926    -0.01200
C985        C  0.49836711  0.58429926  0.08891892    -0.02320
C986        C  0.50274447  0.60620693  0.10909665     0.07360
C987        C  0.51189327  0.63147560  0.09536864    -0.02430
C988        C  0.51703928  0.63499072  0.06156327    -0.02440
C989        C  0.51314356  0.61324814  0.04156446     0.07490
C990        C  0.50374067  0.58789330  0.05524536    -0.02630
Br991      Br  0.50046115  0.55843369  0.52840280    -0.01180
Br992      Br  0.48718449  0.54973020  0.10718235    -0.01250
Br993      Br  0.52865085  0.66937686  0.04272752    -0.01210
Br994      Br  0.51668636  0.66109601  0.12270087    -0.01200
C995        C  0.48955756  0.67638156  0.40849075    -0.02320
C996        C  0.48537168  0.65206447  0.41881371     0.07360
C997        C  0.45888496  0.63002655  0.42060535    -0.02430
C998        C  0.43961831  0.62835458  0.39988927    -0.02440
C999        C  0.44559266  0.65136954  0.38061112     0.07490
C1000       C  0.46896850  0.67629473  0.39166050    -0.02630
Br1001     Br  0.47245387  0.71032206  0.39066034    -0.01180
Br1002     Br  0.52433614  0.70909597  0.41461687    -0.01250
Br1003     Br  0.40611758  0.59384741  0.40310399    -0.01210
Br1004     Br  0.44947000  0.60289417  0.45328513    -0.01200
C1005       C  0.56011717  0.43797038  0.44513533    -0.02320
C1006       C  0.56217578  0.45849916  0.96634060     0.07360
C1007       C  0.54052128  0.45274497  0.98819598    -0.02430
C1008       C  0.51646398  0.42702425  0.98777974    -0.02440
C1009       C  0.51331387  0.40764886  0.96376258     0.07490
C1010       C  0.53570555  0.41282592  0.44350957    -0.02630
Br1011     Br  0.53424340  0.38486018  0.41546096    -0.01180
Br1012     Br  0.59124570  0.44332448  0.41975365    -0.01250
Br1013     Br  0.48870437  0.41900019  0.02096901    -0.01210
Br1014     Br  0.54301314  0.48038384  0.01767085    -0.01200
C1015       C  0.68391803  0.56823842  0.36015610    -0.02320
C1016       C  0.67717826  0.54435311  0.37587194     0.07360
C1017       C  0.67312224  0.52206134  0.35696851    -0.02430
C1018       C  0.67002216  0.52149706  0.32330432    -0.02440
C1019       C  0.67128637  0.54335871  0.30860088     0.07490
C1020       C  0.68054506  0.56761228  0.32634793    -0.02630
Br1021     Br  0.68452113  0.59842555  0.30557829    -0.01180
Br1022     Br  0.69419926  0.60055161  0.38527083    -0.01250
Br1023     Br  0.66116297  0.48966227  0.29781497    -0.01210
Br1024     Br  0.66866646  0.49106334  0.37798780    -0.01200
C1025       C  0.63694018  0.47848414  0.05651714    -0.02320
C1026       C  0.65246797  0.48666808  0.02692501     0.07360
C1027       C  0.66226539  0.47052313  0.01453217    -0.02430
C1028       C  0.65774699  0.44801292  0.03261423    -0.02440
C1029       C  0.64414011  0.44225037  0.06426082     0.07490
C1030       C  0.62736082  0.45250671  0.06760528    -0.02630
Br1031     Br  0.59347209  0.42982134  0.04707191    -0.01180
Br1032     Br  0.61851938  0.49523192  0.07434498    -0.01250
Br1033     Br  0.67261868  0.42871095  0.01296757    -0.01210
Br1034     Br  0.68472200  0.48103550  0.97475144    -0.01200
C1035       C  0.61645580  0.59302139  0.42504210    -0.02320
C1036       C  0.62285393  0.59071074  0.45695695     0.07360
C1037       C  0.61998192  0.60570223  0.48258289    -0.02430
C1038       C  0.60779959  0.62020612  0.47698399    -0.02440
C1039       C  0.59884553  0.62009848  0.44576210     0.07490
C1040       C  0.60465423  0.60777235  0.41952368    -0.02630
Br1041     Br  0.59290500  0.60804886  0.37669664    -0.01180
Br1042     Br  0.62175648  0.57411552  0.38893112    -0.01250
Br1043     Br  0.59996460  0.63742014  0.01289811    -0.01210
Br1044     Br  0.62922240  0.60351088  0.02606269    -0.01200
In1045     In  0.63617683  0.52903734  0.96446623     1.36870
C1046       C  0.65172566  0.50600964  0.50517078     0.77110
O1047       O  0.59824907  0.49865206  0.49161225    -0.61340
O1048       O  0.60080637  0.49585359  0.93989217    -0.52250
C1049       C  0.62763527  0.56912252  0.96338954     0.69770
O1050       O  0.64790902  0.57225407  0.47722662    -0.47110
C1051       C  0.66471600  0.53906816  0.90909105     0.74480
O1052       O  0.64814521  0.52462348  0.51477493    -0.58970
O1053       O  0.64147497  0.51848191  0.91409813    -0.49060
O1054       O  0.65125697  0.50291712  0.97472087    -0.55400
C1055       C  0.58751538  0.48521244  0.46602386     0.84660
O1056       O  0.61147543  0.54541882  0.95357649    -0.57290
O1057       O  0.67463180  0.55460313  0.93355407    -0.60580
In1058     In  0.52899475  0.62011112  0.94360839     1.36870
C1059       C  0.50704757  0.64799492  0.92757190     0.77110
O1060       O  0.51508967  0.59604760  0.89646050    -0.61340
O1061       O  0.49818272  0.57639924  0.94193467    -0.52250
C1062       C  0.57509886  0.62221955  0.94356843     0.69770
O1063       O  0.57521424  0.64301646  0.93599301    -0.47110
C1064       C  0.51881242  0.61657211  0.50630407     0.74480
O1065       O  0.51977409  0.64210939  0.90678851    -0.58970
O1066       O  0.50231165  0.59952150  0.48627704    -0.49060
O1067       O  0.50985784  0.64405305  0.95642437    -0.55400
C1068       C  0.49848271  0.57441904  0.91131839     0.84660
O1069       O  0.55222777  0.60167671  0.94955408    -0.57290
O1070       O  0.54043039  0.63634530  0.99392966    -0.60580
In1071     In  0.62596516  0.52609762  0.72804778     1.36870
C1072       C  0.63909037  0.49614996  0.69219154     0.77110
O1073       O  0.66571891  0.55173071  0.75318975    -0.61340
O1074       O  0.63194869  0.51904794  0.77823059    -0.52250
C1075       C  0.62150712  0.56665652  0.71315957     0.69770
O1076       O  0.63299410  0.55849838  0.69367208    -0.47110
C1077       C  0.57400138  0.48966434  0.72993125     0.74480
O1078       O  0.64927367  0.52089152  0.68638070    -0.58970
O1079       O  0.58663370  0.50182537  0.75517273    -0.49060
O1080       O  0.62324985  0.48782740  0.71673229    -0.55400
C1081       C  0.65626867  0.53809908  0.77897130     0.84660
O1082       O  0.61487651  0.55564344  0.74062230    -0.57290
O1083       O  0.58763516  0.49792308  0.70344194    -0.60580
In1084     In  0.50244422  0.59272017  0.70554640     1.36870
C1085       C  0.48238694  0.61552656  0.74332464     0.77110
O1086       O  0.51942486  0.61984615  0.66261246    -0.61340
O1087       O  0.48170770  0.58261965  0.65877924    -0.52250
C1088       C  0.55033532  0.59914340  0.70186076     0.69770
O1089       O  0.54666338  0.61640214  0.71608955    -0.47110
C1090       C  0.47694481  0.54386165  0.72980172     0.74480
O1091       O  0.50719986  0.62429659  0.74126288    -0.58970
O1092       O  0.47400276  0.54887180  0.70134397    -0.49060
O1093       O  0.46805655  0.59606725  0.72446534    -0.55400
C1094       C  0.50082463  0.60315820  0.64455444     0.84660
O1095       O  0.52957066  0.57916551  0.68997977    -0.57290
O1096       O  0.49315213  0.56428509  0.74652305    -0.60580
In1097     In  0.44224089  0.33407235  0.95158960     1.36870
C1098       C  0.46092223  0.31356073  0.48977924     0.77110
O1099       O  0.41172083  0.29618247  0.92460771    -0.61340
O1100       O  0.44870964  0.32561717  0.90061661    -0.52250
C1101       C  0.40985808  0.35201785  0.95639251     0.69770
O1102       O  0.40711073  0.33446727  0.47593810    -0.47110
C1103       C  0.48703465  0.38195065  0.45929676     0.74480
O1104       O  0.44054627  0.31450579  0.49861076    -0.58970
O1105       O  0.47976429  0.37043891  0.93191444    -0.49060
O1106       O  0.46842749  0.31905109  0.96035214    -0.55400
C1107       C  0.42611172  0.30376356  0.89844214     0.84660
O1108       O  0.42714494  0.35798185  0.93353358    -0.57290
O1109       O  0.47034223  0.36952818  0.48243675    -0.60580
In1110     In  0.35637048  0.45593448  0.96509610     1.36870
C1111       C  0.33499009  0.48045105  0.93996660     0.77110
O1112       O  0.32108086  0.43675827  0.00034565    -0.61340
O1113       O  0.35931178  0.46953494  0.51642439    -0.52250
C1114       C  0.36279962  0.41580607  0.97047584     0.69770
O1115       O  0.34754474  0.41491377  0.94903205    -0.47110
C1116       C  0.40263926  0.48470683  0.93182899     0.74480
O1117       O  0.32618838  0.45575975  0.93330620    -0.58970
O1118       O  0.39979732  0.48879002  0.96187180    -0.49060
O1119       O  0.35393138  0.49118896  0.95945113    -0.55400
C1120       C  0.33480709  0.45195007  0.52371661     0.84660
O1121       O  0.37126578  0.43519406  0.99053801    -0.57290
O1122       O  0.38200752  0.46506294  0.91896688    -0.60580
In1123     In  0.43260480  0.33821388  0.71832398     1.36870
C1124       C  0.46121934  0.32521552  0.67813223     0.77110
O1125       O  0.46438883  0.37779643  0.69667155    -0.61340
O1126       O  0.45825431  0.37474230  0.74819730    -0.52250
C1127       C  0.39019366  0.34252668  0.71322517     0.69770
O1128       O  0.39237466  0.32520811  0.69646880    -0.47110
C1129       C  0.41962892  0.30647748  0.76899350     0.74480
O1130       O  0.44468686  0.33033083  0.66765085    -0.58970
O1131       O  0.43973649  0.33037619  0.76734810    -0.49060
O1132       O  0.46094116  0.32450766  0.70867234    -0.55400
C1133       C  0.47210316  0.38906486  0.72413792     0.84660
O1134       O  0.40961112  0.35717866  0.73119566    -0.57290
O1135       O  0.40544536  0.29803431  0.74405861    -0.60580
In1136     In  0.33503883  0.43899643  0.71835512     1.36870
C1137       C  0.31991223  0.46667330  0.75625178     0.77110
O1138       O  0.36290504  0.44418902  0.75772951    -0.61340
O1139       O  0.37916612  0.46378224  0.71210632    -0.52250
C1140       C  0.33130232  0.39219664  0.71187479     0.69770
O1141       O  0.31624094  0.39524232  0.73246564    -0.47110
C1142       C  0.32105202  0.44309472  0.66017831     0.74480
O1143       O  0.30784448  0.44115580  0.75803734    -0.58970
O1144       O  0.34437949  0.45869037  0.67069397    -0.49060
O1145       O  0.33836999  0.47728431  0.73438344    -0.55400
C1146       C  0.38359559  0.45826048  0.73951399     0.84660
O1147       O  0.34498424  0.41165627  0.69273872    -0.57290
O1148       O  0.30399365  0.42582036  0.68041952    -0.60580
C1149       C  0.42910044  0.75189598  0.82630737    -0.02960
C1150       C  0.43135859  0.64864656  0.84637486    -0.02960
C1151       C  0.20855182  0.63828264  0.84264189    -0.02960
C1152       C  0.32077052  0.74576793  0.82692283    -0.02960
C1153       C  0.20780019  0.53171747  0.84013530    -0.02960
C1154       C  0.31674166  0.54226360  0.85297361    -0.02960
In1155     In  0.51237472  0.88920499  0.94864229     1.36870
C1156       C  0.55621511  0.93798481  0.95433825     0.77110
O1157       O  0.50079370  0.90641633  0.90918966    -0.61340
O1158       O  0.47869819  0.89558952  0.95470715    -0.52250
C1159       C  0.49404501  0.84441217  0.91399990     0.69770
O1160       O  0.51747860  0.86506312  0.90866384    -0.47110
C1161       C  0.51533543  0.87270183  0.50641590     0.74480
O1162       O  0.55557239  0.92090309  0.93397860    -0.58970
O1163       O  0.49810377  0.87823048  0.50043991    -0.49060
O1164       O  0.53484254  0.92959447  0.97134762    -0.55400
C1165       C  0.48241088  0.90588722  0.92697702     0.84660
O1166       O  0.48079394  0.84658213  0.93764232    -0.57290
O1167       O  0.53031323  0.87458607  0.98190249    -0.60580
In1168     In  0.61610072  0.09603231  0.96895404     1.36870
C1169       C  0.63523998  0.13600093  0.51414405     0.77110
O1170       O  0.64642517  0.11601819  0.92533858    -0.61340
O1171       O  0.60485985  0.09662217  0.91804224    -0.52250
C1172       C  0.61307639  0.04971785  0.96724675     0.69770
O1173       O  0.63437372  0.07109502  0.47402113    -0.47110
C1174       C  0.56798130  0.08273973  0.98929141     0.74480
O1175       O  0.63953424  0.11720640  0.51521007    -0.58970
O1176       O  0.57840633  0.09337802  0.96198805    -0.49060
O1177       O  0.62509137  0.13558926  0.98854777    -0.55400
C1178       C  0.62820247  0.10887232  0.90506366     0.84660
O1179       O  0.59323490  0.05184383  0.96493779    -0.57290
O1180       O  0.58220839  0.07680873  0.50396602    -0.60580
In1181     In  0.52995594  0.87898617  0.70548806     1.36870
C1182       C  0.50981161  0.83099654  0.73293589     0.77110
O1183       O  0.50188137  0.87931438  0.74457488    -0.61340
O1184       O  0.50111167  0.89051831  0.69606440    -0.52250
C1185       C  0.57540459  0.92718799  0.70997796     0.69770
O1186       O  0.57429315  0.90841852  0.69287114    -0.47110
C1187       C  0.52667064  0.86901362  0.64219370     0.74480
O1188       O  0.53037493  0.85217666  0.74384226    -0.58970
O1189       O  0.51407452  0.87803796  0.65766899    -0.49060
O1190       O  0.50241729  0.83467192  0.70676196    -0.55400
C1191       C  0.49072023  0.88553000  0.72456793     0.84660
O1192       O  0.55510637  0.91990258  0.72862776    -0.57290
O1193       O  0.54159794  0.86531716  0.65922031    -0.60580
In1194     In  0.61093795  0.07712188  0.70336097     1.36870
C1195       C  0.62363470  0.11848822  0.66521095     0.77110
O1196       O  0.58195567  0.05338283  0.66309673    -0.61340
O1197       O  0.56657661  0.05554097  0.71022983    -0.52250
C1198       C  0.61939312  0.03733751  0.70295486     0.69770
O1199       O  0.63324319  0.05742425  0.68436176    -0.47110
C1200       C  0.62436668  0.09786871  0.76434417     0.74480
O1201       O  0.63778823  0.10823232  0.66383861    -0.58970
O1202       O  0.60058931  0.08395150  0.75474973    -0.49060
O1203       O  0.60515320  0.10866389  0.68705345    -0.55400
C1204       C  0.56149595  0.04732547  0.68107445     0.84660
O1205       O  0.60301277  0.03882579  0.72227515    -0.57290
O1206       O  0.64192647  0.10231256  0.74205606    -0.60580
In1207     In  0.34262465  0.87852184  0.94484747     1.36870
C1208       C  0.32435961  0.83263354  0.91067517     0.77110
O1209       O  0.37485258  0.90170262  0.90510841    -0.61340
O1210       O  0.38593216  0.89675704  0.95132098    -0.52250
C1211       C  0.33564172  0.91912236  0.95384866     0.69770
O1212       O  0.31791649  0.89760478  0.93951456    -0.47110
C1213       C  0.33341791  0.86526197  0.00655691     0.74480
O1214       O  0.32669107  0.85320424  0.89837949    -0.58970
O1215       O  0.35372183  0.86878179  0.99003686    -0.49060
O1216       O  0.32766901  0.83449903  0.94080791    -0.55400
C1217       C  0.39363254  0.90678651  0.92329179     0.84660
O1218       O  0.35600831  0.91940483  0.96165097    -0.57290
O1219       O  0.31590004  0.86551577  0.99037344    -0.60580
In1220     In  0.42898265  0.07434487  0.98027819     1.36870
C1221       C  0.44851652  0.11852319  0.51810021     0.77110
O1222       O  0.45006302  0.06662576  0.51888474    -0.61340
O1223       O  0.46203526  0.06827039  0.96881548    -0.52250
C1224       C  0.38302705  0.02624980  0.98087672     0.69770
O1225       O  0.38343732  0.04758308  0.47832436    -0.47110
C1226       C  0.43646805  0.08368861  0.91644764     0.74480
O1227       O  0.42951720  0.09568376  0.52804868    -0.58970
O1228       O  0.45337586  0.08391502  0.93399453    -0.49060
O1229       O  0.45272875  0.11930408  0.98758657    -0.55400
C1230       C  0.46663987  0.06685986  0.49804803     0.84660
O1231       O  0.40560545  0.02993660  0.98560559    -0.57290
O1232       O  0.41606675  0.08089317  0.93218197    -0.60580
In1233     In  0.34439617  0.86859271  0.70812506     1.36870
C1234       C  0.32221448  0.82335026  0.74283400     0.77110
O1235       O  0.31711014  0.86159796  0.66726182    -0.61340
O1236       O  0.35156897  0.85905481  0.65804701    -0.52250
C1237       C  0.34835640  0.91556770  0.71377294     0.69770
O1238       O  0.32733040  0.89411438  0.72436993    -0.47110
C1239       C  0.39322059  0.88142621  0.71924638     0.74480
O1240       O  0.32764945  0.84556162  0.75553629    -0.58970
O1241       O  0.38343386  0.87500701  0.69146690    -0.49060
O1242       O  0.32316322  0.82330035  0.71218713    -0.55400
C1243       C  0.33266485  0.85970162  0.64643114     0.84660
O1244       O  0.36656868  0.91259960  0.70162719    -0.57290
O1245       O  0.37911217  0.88435035  0.74102829    -0.60580
In1246     In  0.45167047  0.07602362  0.71179722     1.36870
C1247       C  0.40589305  0.02798303  0.71300242     0.77110
O1248       O  0.46102077  0.05694015  0.66843099    -0.61340
O1249       O  0.48121814  0.06437213  0.71281991    -0.52250
C1250       C  0.47401608  0.12463957  0.68444797     0.69770
O1251       O  0.44869477  0.10868166  0.68791976    -0.47110
C1252       C  0.45119242  0.08682801  0.77523210     0.74480
O1253       O  0.40938100  0.04630732  0.69410817    -0.58970
O1254       O  0.47074599  0.08746288  0.76027078    -0.49060
O1255       O  0.42530451  0.03499959  0.73085015    -0.55400
C1256       C  0.47717101  0.05433127  0.68437984     0.84660
O1257       O  0.48688660  0.11473995  0.69331117    -0.57290
O1258       O  0.43306410  0.08339661  0.75697602    -0.60580
In1259     In  0.86886757  0.34604727  0.72893851     1.36870
C1260       C  0.82606207  0.32601265  0.69365561     0.77110
O1261       O  0.85169968  0.30900130  0.75982045    -0.61340
O1262       O  0.85797750  0.34555073  0.78080804    -0.52250
C1263       C  0.91536305  0.35002607  0.72484343     0.69770
O1264       O  0.89639267  0.33381572  0.70660172    -0.47110
C1265       C  0.88826150  0.39751040  0.71751548     0.74480
O1266       O  0.84537139  0.32335554  0.68488950    -0.58970
O1267       O  0.87718421  0.38618526  0.74429795    -0.49060
O1268       O  0.82791107  0.33665092  0.72133157    -0.55400
C1269       C  0.85050411  0.32134158  0.78505613     0.84660
O1270       O  0.90978605  0.36281318  0.74544054    -0.57290
O1271       O  0.88923768  0.38219417  0.69594433    -0.60580
In1272     In  0.08017198  0.44216006  0.71837122     1.36870
C1273       C  0.12008605  0.45969309  0.75807127     0.77110
O1274       O  0.08843405  0.41453781  0.68809255    -0.61340
O1275       O  0.09415000  0.44980443  0.66684745    -0.52250
C1276       C  0.02879518  0.40314688  0.71850091     0.69770
O1277       O  0.04529110  0.40149789  0.73510809    -0.47110
C1278       C  0.07491817  0.48400125  0.72459085     0.74480
O1279       O  0.09619171  0.44197097  0.76723664    -0.58970
O1280       O  0.08877619  0.48152570  0.70202361    -0.49060
O1281       O  0.12298808  0.46614952  0.72869099    -0.55400
C1282       C  0.09471924  0.42880466  0.66299527     0.84660
O1283       O  0.03900942  0.42440351  0.70222074    -0.57290
O1284       O  0.06446462  0.46523025  0.74513534    -0.60580
In1285     In  0.87186105  0.33797381  0.47735806     1.36870
C1286       C  0.82609885  0.31920675  0.51324258     0.77110
O1287       O  0.88230464  0.37437681  0.50876455    -0.61340
O1288       O  0.88615793  0.37737303  0.45672301    -0.52250
C1289       C  0.91807039  0.34024306  0.47646700     0.69770
O1290       O  0.89583499  0.31779088  0.47973308    -0.47110
C1291       C  0.85541220  0.31878095  0.91870869     0.74480
O1292       O  0.84630155  0.32024670  0.52433703    -0.58970
O1293       O  0.86483838  0.34298747  0.92714360    -0.49060
O1294       O  0.82904781  0.32518040  0.48372540    -0.55400
C1295       C  0.88685015  0.38848100  0.48387650     0.84660
O1296       O  0.91632566  0.36052774  0.97891858    -0.57290
O1297       O  0.85487845  0.30393342  0.94053946    -0.60580
In1298     In  0.07834843  0.42885026  0.97404656     1.36870
C1299       C  0.12456604  0.45558391  0.93643743     0.77110
O1300       O  0.06231543  0.44993215  0.94857743    -0.60860
O1301       O  0.06838724  0.45687278  0.99939819    -0.52250
C1302       C  0.02939505  0.38497726  0.96372528     0.69770
O1303       O  0.04739905  0.39566201  0.94113719    -0.47110
C1304       C  0.09428243  0.42173483  0.52953777     0.74480
O1305       O  0.10859413  0.43012077  0.93522385    -0.58970
O1306       O  0.09250508  0.44156402  0.52407483    -0.49060
O1307       O  0.11700446  0.46655672  0.95722827    -0.55400
C1308       C  0.06255549  0.46313827  0.97362487     0.84660
O1309       O  0.03752449  0.39494138  0.99152477    -0.57290
O1310       O  0.08904013  0.40555830  0.50572316    -0.60580
In1311     In  0.87967143  0.53171192  0.72638087     1.36870
C1312       C  0.83925267  0.51334799  0.68496159     0.77110
O1313       O  0.89280158  0.50910668  0.69373177    -0.61340
O1314       O  0.87850143  0.49553202  0.74200424    -0.52250
C1315       C  0.93265722  0.56928240  0.72579567     0.69770
O1316       O  0.91692362  0.57258363  0.70970617    -0.47110
C1317       C  0.86385615  0.53909662  0.78545566     0.74480
O1318       O  0.86240533  0.53411279  0.67879220    -0.58970
O1319       O  0.86208259  0.51766200  0.77590415    -0.49060
O1320       O  0.83652442  0.50427126  0.71307646    -0.55400
C1321       C  0.88882217  0.49283203  0.71569496     0.84660
O1322       O  0.92095064  0.54853829  0.74311412    -0.57290
O1323       O  0.87223596  0.55689680  0.76366938    -0.60580
In1324     In  0.09990213  0.63748630  0.72871593     1.36870
C1325       C  0.14226239  0.65530507  0.76550805     0.77110
O1326       O  0.07838473  0.59665714  0.75229249    -0.61340
O1327       O  0.09857579  0.60178937  0.70662175    -0.52250
C1328       C  0.04879238  0.62334624  0.72955778     0.69770
O1329       O  0.06402477  0.63795370  0.75244191    -0.47110
C1330       C  0.11491690  0.66648103  0.67591465     0.74480
O1331       O  0.12117768  0.65406391  0.77676108    -0.58970
O1332       O  0.11604247  0.64587746  0.67843171    -0.49060
O1333       O  0.14279088  0.65172513  0.73522129    -0.55400
C1334       C  0.08389604  0.58568696  0.72900171     0.84660
O1335       O  0.06063266  0.61854533  0.70657330    -0.57290
O1336       O  0.10871892  0.67448645  0.70199799    -0.60580
In1337     In  0.88197175  0.52533211  0.47353497     1.36870
C1338       C  0.83821327  0.49761389  0.51163054     0.77110
O1339       O  0.86944512  0.54925449  0.94612663    -0.61340
O1340       O  0.86649361  0.51437686  0.92388668    -0.52250
C1341       C  0.93294890  0.56454897  0.47430177     0.69770
O1342       O  0.91810213  0.55848467  0.50010030    -0.47110
C1343       C  0.89415562  0.48896851  0.47686017     0.74480
O1344       O  0.85536144  0.52243966  0.51771571    -0.58970
O1345       O  0.88972613  0.49572804  0.95054915    -0.49060
O1346       O  0.84273585  0.48875427  0.48543577    -0.55400
C1347       C  0.86434661  0.53434163  0.92088485     0.84660
O1348       O  0.92045941  0.55345029  0.94837393    -0.57290
O1349       O  0.89448602  0.50239880  0.50166615    -0.60580
In1350     In  0.09316013  0.61884974  0.99148738     1.36870
C1351       C  0.13227322  0.63608355  0.94577975     0.77110
O1352       O  0.11068058  0.65899322  0.51824818    -0.61340
O1353       O  0.09779916  0.62354097  0.54506497    -0.52250
C1354       C  0.04586115  0.61204743  0.98337446     0.69770
O1355       O  0.06674572  0.62971363  0.96773919    -0.47110
C1356       C  0.07978490  0.56787047  0.98787523     0.74480
O1357       O  0.11083509  0.63516220  0.94158824    -0.58970
O1358       O  0.09377943  0.58363960  0.01046571    -0.49060
O1359       O  0.13492952  0.63112651  0.97439490    -0.55400
C1360       C  0.10700451  0.64844121  0.54571824     0.84660
O1361       O  0.04958944  0.59929416  0.00401216    -0.57290
O1362       O  0.07269111  0.57808628  0.96767766    -0.60580
C1363       C  0.53147916  0.20985978  0.59905238    -0.02960
C1364       C  0.53229952  0.31472820  0.58306957    -0.02960
C1365       C  0.75298514  0.43095909  0.60039791    -0.02960
C1366       C  0.64495311  0.42548954  0.59407592    -0.02960
C1367       C  0.74800849  0.32252725  0.60810486    -0.02960
C1368       C  0.63839846  0.21462056  0.60789422    -0.02960
C1369       C  0.67202513  0.26345214  0.63171723    -0.02320
C1370       C  0.66661635  0.24266570  0.60834940     0.07360
C1371       C  0.68906639  0.24834390  0.58745955    -0.02430
C1372       C  0.71038488  0.27481825  0.58219450    -0.02440
C1373       C  0.71794335  0.29559699  0.60689033     0.07490
C1374       C  0.69586003  0.29000797  0.62897651    -0.02630
Br1375     Br  0.69444910  0.31818523  0.65292536    -0.01180
Br1376     Br  0.64789566  0.25562632  0.66961453    -0.01250
Br1377     Br  0.72143801  0.27943788  0.53616671    -0.01210
Br1378     Br  0.69866025  0.22246627  0.57342449    -0.01200
C1379       C  0.73289968  0.37917980  0.58428540    -0.02320
C1380       C  0.74837034  0.40146151  0.60611529     0.07360
C1381       C  0.75681328  0.39423960  0.63406958    -0.02430
C1382       C  0.75541249  0.36916491  0.63576075    -0.02440
C1383       C  0.74623443  0.34954001  0.60898713     0.07490
C1384       C  0.73152848  0.35407635  0.58597113    -0.02630
Br1385     Br  0.70803022  0.32616349  0.55579895    -0.01180
Br1386     Br  0.71001447  0.38103504  0.55359177    -0.01250
Br1387     Br  0.76091632  0.36155658  0.67964851    -0.01210
Br1388     Br  0.76561967  0.41521670  0.67467453    -0.01200
C1389       C  0.69969972  0.40791531  0.61536853    -0.02320
C1390       C  0.72506609  0.43023625  0.60335847     0.07360
C1391       C  0.72390744  0.45296714  0.59518145    -0.02430
C1392       C  0.69928506  0.45021103  0.58692728    -0.02440
C1393       C  0.67283485  0.42572443  0.59372586     0.07490
C1394       C  0.67465418  0.40551983  0.61019018    -0.02630
Br1395     Br  0.64360151  0.37261238  0.62683908    -0.01180
Br1396     Br  0.69830120  0.38326877  0.64689805    -0.01250
Br1397     Br  0.70583409  0.48371504  0.56884939    -0.01210
Br1398     Br  0.75522405  0.49011436  0.60062544    -0.01200
C1399       C  0.61081310  0.37491537  0.57008151    -0.02320
C1400       C  0.61548448  0.39663507  0.59215752     0.07360
C1401       C  0.59027661  0.39307597  0.60521573    -0.02430
C1402       C  0.56428215  0.36826460  0.60109932    -0.02440
C1403       C  0.56112554  0.34448922  0.58472522     0.07490
C1404       C  0.58440235  0.35153179  0.56437564    -0.02630
Br1405     Br  0.58143489  0.32997531  0.52668604    -0.01180
Br1406     Br  0.63973973  0.37307663  0.54849128    -0.01250
Br1407     Br  0.53324265  0.37136471  0.61108804    -0.01210
Br1408     Br  0.58808698  0.42229108  0.62665474    -0.01200
C1409       C  0.58448249  0.23491972  0.61473888    -0.02320
C1410       C  0.56146946  0.21476033  0.59687792     0.07360
C1411       C  0.56799550  0.19875622  0.57624534    -0.02430
C1412       C  0.58882564  0.19498560  0.58367514    -0.02440
C1413       C  0.61225654  0.21586859  0.60058883     0.07490
C1414       C  0.61022041  0.23836419  0.60910168    -0.02630
Br1415     Br  0.63744521  0.27365832  0.59245142    -0.01180
Br1416     Br  0.58611572  0.26320146  0.64113549    -0.01250
Br1417     Br  0.58007371  0.15904389  0.57081978    -0.01210
Br1418     Br  0.55788533  0.18974557  0.53160078    -0.01200
C1419       C  0.50747373  0.26023428  0.57998850    -0.02320
C1420       C  0.53207687  0.28704250  0.58324809     0.07360
C1421       C  0.55519444  0.28589899  0.58787437    -0.02430
C1422       C  0.55456001  0.26173416  0.58300525    -0.02440
C1423       C  0.53089492  0.23618552  0.59053267     0.07490
C1424       C  0.50647510  0.23600630  0.58745975    -0.02630
Br1425     Br  0.47043038  0.20272844  0.58663465    -0.01180
Br1426     Br  0.47402398  0.25323913  0.56180758    -0.01250
Br1427     Br  0.58350650  0.26576452  0.55433900    -0.01210
Br1428     Br  0.58804410  0.31384204  0.60616010    -0.01200
C1429       C  0.80856001  0.45311674  0.53865246    -0.02320
C1430       C  0.81429730  0.47925569  0.53250808     0.07360
C1431       C  0.79312223  0.48348369  0.53687470    -0.02430
C1432       C  0.76761043  0.46205624  0.54829193    -0.02440
C1433       C  0.76518669  0.43976622  0.56376092     0.07490
C1434       C  0.78212055  0.43234129  0.54789459    -0.02630
Br1435     Br  0.76732984  0.41041383  0.50940604    -0.01180
Br1436     Br  0.83449979  0.44339025  0.52859042    -0.01250
Br1437     Br  0.73915902  0.45396706  0.52046195    -0.01210
Br1438     Br  0.79687990  0.51563454  0.52051128    -0.01200
C1439       C  0.97806850  0.60405106  0.49128121    -0.02320
C1440       C  0.96262571  0.57962501  0.47376299     0.07360
C1441       C  0.97549100  0.56803400  0.95591952    -0.02430
C1442       C  0.00341809  0.58056025  0.95697045    -0.02440
C1443       C  0.01853110  0.60402739  0.97591718     0.07490
C1444       C  0.00612377  0.61641336  0.99161508    -0.02630
Br1445     Br  0.02784267  0.65060692  0.01358149    -0.01180
Br1446     Br  0.96078512  0.62016123  0.51423976    -0.01250
Br1447     Br  0.02106012  0.56507912  0.93290393    -0.01210
Br1448     Br  0.95544996  0.53372845  0.93293054    -0.01200
C1449       C  0.13952989  0.68452512  0.62328543    -0.02320
C1450       C  0.11636752  0.67655831  0.64332356     0.07360
C1451       C  0.09144945  0.66607689  0.62897357    -0.02430
C1452       C  0.08853526  0.65770727  0.59622221    -0.02440
C1453       C  0.11125304  0.66308146  0.57680202     0.07490
C1454       C  0.13705366  0.67824259  0.58971081    -0.02630
Br1455     Br  0.16824629  0.68688858  0.56247848    -0.01180
Br1456     Br  0.17392602  0.70107739  0.64296616    -0.01250
Br1457     Br  0.05288918  0.63503052  0.57966499    -0.01210
Br1458     Br  0.06027702  0.65878555  0.65548064    -0.01200
C1459       C  0.83678740  0.52065173  0.83740657    -0.02320
C1460       C  0.85848185  0.54278483  0.82034672     0.07360
C1461       C  0.87838427  0.56521339  0.83816183    -0.02430
C1462       C  0.87843501  0.56392745  0.87239194    -0.02440
C1463       C  0.85861760  0.54024071  0.88883232     0.07490
C1464       C  0.83699141  0.51929040  0.87149917    -0.02630
Br1465     Br  0.80875432  0.48768128  0.89438134    -0.01180
Br1466     Br  0.80758523  0.49124191  0.81378325    -0.01250
Br1467     Br  0.90807069  0.59288215  0.89598649    -0.01210
Br1468     Br  0.90787722  0.59611943  0.81575998    -0.01200
C1469       C  0.82325119  0.48820583  0.63227910    -0.02320
C1470       C  0.81759957  0.49826242  0.66086962     0.07360
C1471       C  0.79043400  0.48694943  0.67076120    -0.02430
C1472       C  0.76922714  0.46550636  0.65263829    -0.02440
C1473       C  0.77500395  0.45376590  0.62411048     0.07490
C1474       C  0.80298099  0.46365336  0.61851397    -0.02630
Br1475     Br  0.81485496  0.43935109  0.60902728    -0.01180
Br1476     Br  0.85949446  0.50574700  0.61381832    -0.01250
Br1477     Br  0.73370867  0.45003635  0.67336356    -0.01210
Br1478     Br  0.78265326  0.50155725  0.70971353    -0.01200
C1479       C  0.97822763  0.61220985  0.73590791    -0.02320
C1480       C  0.96259945  0.58576683  0.72290145     0.07360
C1481       C  0.97549342  0.57245664  0.71193618    -0.02430
C1482       C  0.00303123  0.58417314  0.71639597    -0.02440
C1483       C  0.01904348  0.61077899  0.72910354     0.07490
C1484       C  0.00648291  0.62487311  0.73862693    -0.02630
Br1485     Br  0.02777361  0.66141851  0.75498005    -0.01180
Br1486     Br  0.96086952  0.63080996  0.75015240    -0.01250
Br1487     Br  0.01763654  0.56190057  0.70771251    -0.01210
Br1488     Br  0.95557558  0.53806943  0.68945400    -0.01200
C1489       C  0.09056378  0.53579795  0.96317693    -0.02320
C1490       C  0.07350622  0.54017344  0.98372610     0.07360
C1491       C  0.04960406  0.51790387  0.99738283    -0.02430
C1492       C  0.04448708  0.49161799  0.99300652    -0.02440
C1493       C  0.06169593  0.48755717  0.97212157     0.07490
C1494       C  0.08302546  0.50943382  0.95487925    -0.02630
Br1495     Br  0.10148977  0.50312667  0.91947088    -0.01180
Br1496     Br  0.12576063  0.56554517  0.94967049    -0.01250
Br1497     Br  0.01341019  0.46100348  0.01366593    -0.01210
Br1498     Br  0.02445824  0.52353765  0.02225674    -0.01200
C1499       C  0.90936985  0.43727844  0.50154385    -0.02320
C1500       C  0.88902512  0.41443015  0.48502402     0.07360
C1501       C  0.87046286  0.41619613  0.46717648    -0.02430
C1502       C  0.87309595  0.44087299  0.46349916    -0.02440
C1503       C  0.89391182  0.46411897  0.47899793     0.07490
C1504       C  0.91174628  0.46229516  0.49869039    -0.02630
Br1505     Br  0.93988954  0.49398098  0.52056789    -0.01180
Br1506     Br  0.93397348  0.43435134  0.52727694    -0.01250
Br1507     Br  0.84618083  0.44158406  0.43922702    -0.01210
Br1508     Br  0.83980526  0.38425607  0.44947903    -0.01200
C1509       C  0.78916263  0.32758595  0.52530058    -0.02320
C1510       C  0.80214254  0.31460770  0.53338946     0.07360
C1511       C  0.79321365  0.29957447  0.56191527    -0.02430
C1512       C  0.77237616  0.29865546  0.58179823    -0.02440
C1513       C  0.76519107  0.31873862  0.57880706     0.07490
C1514       C  0.77588907  0.33416246  0.54955450    -0.02630
Br1515     Br  0.77744916  0.36620968  0.53980535    -0.01180
Br1516     Br  0.78078823  0.32698978  0.98022523    -0.01250
Br1517     Br  0.75562790  0.26948486  0.61279424    -0.01210
Br1518     Br  0.80756911  0.27799339  0.57189013    -0.01200
C1519       C  0.95925343  0.36046655  0.94023641    -0.02320
C1520       C  0.94442502  0.34392171  0.46720554     0.07360
C1521       C  0.95657041  0.33462146  0.48658726    -0.02430
C1522       C  0.98428765  0.34477124  0.48150084    -0.02440
C1523       C  0.00022253  0.36533289  0.95853136     0.07490
C1524       C  0.98711844  0.37149810  0.93611728    -0.02630
Br1525     Br  0.00731845  0.39709242  0.90168869    -0.01180
Br1526     Br  0.94130256  0.36883181  0.90935266    -0.01250
Br1527     Br  0.00039955  0.32985100  0.50489428    -0.01210
Br1528     Br  0.93606809  0.31007345  0.52167241    -0.01200
C1529       C  0.06685655  0.51708208  0.75582221    -0.02320
C1530       C  0.07130397  0.50703404  0.72595521     0.07360
C1531       C  0.07248906  0.51944694  0.69660776    -0.02430
C1532       C  0.07478102  0.54445055  0.69747434    -0.02440
C1533       C  0.07467046  0.55665509  0.72773219     0.07490
C1534       C  0.06698228  0.54107116  0.75632353    -0.02630
Br1535     Br  0.05388936  0.55034913  0.79542266    -0.01180
Br1536     Br  0.06161340  0.49925130  0.79659244    -0.01250
Br1537     Br  0.07562453  0.56047135  0.65678303    -0.01210
Br1538     Br  0.06920426  0.50162767  0.65489515    -0.01200
C1539       C  0.07988288  0.39591509  0.58122675    -0.02320
C1540       C  0.10017301  0.41768192  0.56241195     0.07360
C1541       C  0.12268545  0.43926740  0.57780497    -0.02430
C1542       C  0.12280182  0.44117467  0.61195885    -0.02440
C1543       C  0.10052851  0.42131525  0.63060948     0.07490
C1544       C  0.08028066  0.39752513  0.61544587    -0.02630
Br1545     Br  0.05106625  0.36891776  0.64128986    -0.01180
Br1546     Br  0.04923001  0.36602592  0.56079041    -0.01250
Br1547     Br  0.15238356  0.47194200  0.63341073    -0.01210
Br1548     Br  0.15221924  0.46730755  0.55200056    -0.01200
C1549       C  0.89404475  0.43483171  0.68294782    -0.02320
C1550       C  0.89794199  0.42613222  0.71243555     0.07360
C1551       C  0.90716213  0.44405655  0.73931832    -0.02430
C1552       C  0.90659469  0.46751592  0.73907359    -0.02440
C1553       C  0.89635774  0.47274272  0.71211801     0.07490
C1554       C  0.89261874  0.45789513  0.68293607    -0.02630
Br1555     Br  0.88421050  0.46779007  0.64335384    -0.01180
Br1556     Br  0.89081985  0.41587655  0.64258565    -0.01250
Br1557     Br  0.92079930  0.49287242  0.77517168    -0.01210
Br1558     Br  0.92134922  0.43685305  0.77601758    -0.01200
C1559       C  0.85524059  0.29786576  0.83103669    -0.02320
C1560       C  0.84258588  0.30981335  0.81789153     0.07360
C1561       C  0.82773542  0.31709671  0.83861416    -0.02430
C1562       C  0.82930988  0.31670549  0.87239394    -0.02440
C1563       C  0.84608985  0.30953518  0.88550556     0.07490
C1564       C  0.85758977  0.29834770  0.86503459    -0.02630
Br1565     Br  0.87948493  0.28716091  0.88294962    -0.01180
Br1566     Br  0.87146413  0.28320848  0.80276531    -0.01250
Br1567     Br  0.80953796  0.32743744  0.90050675    -0.01210
Br1568     Br  0.80667245  0.32941840  0.82063433    -0.01200
C1569       C  0.77772196  0.30729377  0.68346860    -0.02320
C1570       C  0.80470565  0.32101066  0.67212502     0.07360
C1571       C  0.81257988  0.33718100  0.64481627    -0.02430
C1572       C  0.79493069  0.34310417  0.63228901    -0.02440
C1573       C  0.76619452  0.32490186  0.63719592     0.07490
C1574       C  0.75815469  0.30820651  0.66590023    -0.02630
Br1575     Br  0.72350549  0.29128912  0.68807895    -0.01180
Br1576     Br  0.76787660  0.28588282  0.72246983    -0.01250
Br1577     Br  0.81165429  0.37594320  0.60758894    -0.01210
Br1578     Br  0.84700538  0.34985690  0.62278430    -0.01200
C1579       C  0.95669543  0.35843955  0.74968398    -0.02320
C1580       C  0.94290733  0.35588151  0.72143561     0.07360
C1581       C  0.95717722  0.36484948  0.69126874    -0.02430
C1582       C  0.98539502  0.37827400  0.68984232    -0.02440
C1583       C  0.99948794  0.38294292  0.71867492     0.07490
C1584       C  0.98493764  0.37191752  0.74838298    -0.02630
Br1585     Br  0.00334555  0.37821394  0.78842656    -0.01180
Br1586     Br  0.93703051  0.34528117  0.79091810    -0.01250
Br1587     Br  0.00453092  0.39175744  0.64829622    -0.01210
Br1588     Br  0.93870476  0.36250729  0.65259715    -0.01200
C1589       C  0.51577219  0.17171460  0.67858008    -0.02320
C1590       C  0.48832204  0.15278663  0.67152423     0.07360
C1591       C  0.47540926  0.16244940  0.65384743    -0.02430
C1592       C  0.49071275  0.18908170  0.64216241    -0.02440
C1593       C  0.51853717  0.20092986  0.63559811     0.07490
C1594       C  0.53047120  0.19705150  0.66238609    -0.02630
Br1595     Br  0.54471898  0.22528555  0.69514569    -0.01180
Br1596     Br  0.53049403  0.16637886  0.71659832    -0.01250
Br1597     Br  0.48134433  0.21209119  0.66536320    -0.01210
Br1598     Br  0.43713960  0.14225735  0.64880413    -0.01200
C1599       C  0.35753937  0.95623010  0.68532153    -0.02320
C1600       C  0.35270323  0.94270528  0.71494234     0.07360
C1601       C  0.35961552  0.95746439  0.74439559    -0.02430
C1602       C  0.37395133  0.98589310  0.74390988    -0.02440
C1603       C  0.38229835  0.99968206  0.71381715     0.07490
C1604       C  0.37255288  0.98469951  0.68459784    -0.02630
Br1605     Br  0.38277495  0.00260959  0.64307896    -0.01180
Br1606     Br  0.34560896  0.93548417  0.64531183    -0.01250
Br1607     Br  0.38383882  0.00594674  0.78464407    -0.01210
Br1608     Br  0.35279035  0.93894927  0.78497490    -0.01200
C1609       C  0.45511426  0.07226523  0.82997446    -0.02320
C1610       C  0.44859866  0.08752642  0.81141182     0.07360
C1611       C  0.43763130  0.10132842  0.82747449    -0.02430
C1612       C  0.43346794  0.10011602  0.86174694    -0.02440
C1613       C  0.44017461  0.08502912  0.88027921     0.07490
C1614       C  0.45077025  0.07087758  0.86405833    -0.02630
Br1615     Br  0.45748541  0.04744602  0.88782352    -0.01180
Br1616     Br  0.46818233  0.05124046  0.80891545    -0.01250
Br1617     Br  0.41942118  0.11996679  0.88316189    -0.01210
Br1618     Br  0.42921219  0.12285156  0.80276368    -0.01200
C1619       C  0.47675711  0.13678298  0.56800189    -0.02320
C1620       C  0.46735183  0.14164243  0.53983373     0.07360
C1621       C  0.48155348  0.16813037  0.52781439    -0.02430
C1622       C  0.50446420  0.18935586  0.54354380    -0.02440
C1623       C  0.51213762  0.18556544  0.57467495     0.07490
C1624       C  0.50005074  0.15788200  0.58323207    -0.02630
Br1625     Br  0.51846423  0.14669166  0.60906080    -0.01180
Br1626     Br  0.45890562  0.10077166  0.58565888    -0.01250
Br1627     Br  0.52617350  0.22148204  0.51791708    -0.01210
Br1628     Br  0.46873111  0.17631738  0.99021351    -0.01200
C1629       C  0.30804239  0.84487833  0.55986374    -0.02320
C1630       C  0.33208276  0.86359357  0.54246833     0.07360
C1631       C  0.35544779  0.88183396  0.55964065    -0.02430
C1632       C  0.35516468  0.88053093  0.59360937    -0.02440
C1633       C  0.33143482  0.86122431  0.61094840     0.07490
C1634       C  0.30771980  0.84377874  0.59417224    -0.02630
Br1635     Br  0.27532270  0.81757531  0.61800812    -0.01180
Br1636     Br  0.27597238  0.81985617  0.53682916    -0.01250
Br1637     Br  0.38744376  0.90642611  0.61634409    -0.01210
Br1638     Br  0.38780971  0.91008440  0.03738377    -0.01200
C1639       C  0.35117698  0.98880553  0.94452281    -0.02320
C1640       C  0.35943825  0.99854478  0.97644093     0.07360
C1641       C  0.35155282  0.98006064  0.00183511    -0.02430
C1642       C  0.33863122  0.95228796  0.99472447    -0.02440
C1643       C  0.33427102  0.94298519  0.96206513     0.07490
C1644       C  0.33867678  0.96095679  0.93729425    -0.02630
Br1645     Br  0.33169236  0.94808364  0.89285297    -0.01180
Br1646     Br  0.36107540  0.01404528  0.90981350    -0.01250
Br1647     Br  0.33033793  0.92728483  0.02927392    -0.01210
Br1648     Br  0.36153832  0.99300357  0.54599168    -0.01200
C1649       C  0.51259785  0.01930793  0.69237169    -0.02320
C1650       C  0.53380949  0.03409844  0.66946775     0.07360
C1651       C  0.52893937  0.04449176  0.64220730    -0.02430
C1652       C  0.50726854  0.04832097  0.64407971    -0.02440
C1653       C  0.49025395  0.04010503  0.67239540     0.07490
C1654       C  0.49067122  0.02235275  0.69392856    -0.02630
Br1655     Br  0.46248994  0.00434435  0.72718124    -0.01180
Br1656     Br  0.51555774  0.99771412  0.72367933    -0.01250
Br1657     Br  0.50277385  0.06707646  0.61012723    -0.01210
Br1658     Br  0.55281185  0.05521348  0.60409204    -0.01200
C1659       C  0.60242544  0.14382689  0.64228400    -0.02320
C1660       C  0.62834778  0.14153986  0.64539942     0.07360
C1661       C  0.65828769  0.16840700  0.64399496    -0.02430
C1662       C  0.66235336  0.19781996  0.64217548    -0.02440
C1663       C  0.63579437  0.20023862  0.63875227     0.07490
C1664       C  0.60595410  0.17272113  0.64054610    -0.02630
Br1665     Br  0.57666135  0.17556517  0.65694303    -0.01180
Br1666     Br  0.56654940  0.11323344  0.64916580    -0.01250
Br1667     Br  0.69531943  0.22725440  0.65879868    -0.01210
Br1668     Br  0.68870456  0.16597207  0.65118196    -0.01200
C1669       C  0.46339614  0.90445180  0.74447118    -0.02320
C1670       C  0.46494636  0.88289535  0.73151572     0.07360
C1671       C  0.44211435  0.85978953  0.71908358    -0.02430
C1672       C  0.41861954  0.85941789  0.71551329    -0.02440
C1673       C  0.41754045  0.88191247  0.72589087     0.07490
C1674       C  0.43940087  0.90388966  0.74195419    -0.02630
Br1675     Br  0.43733765  0.93391638  0.75791091    -0.01180
Br1676     Br  0.49424623  0.93451814  0.76475069    -0.01250
Br1677     Br  0.38822258  0.82802085  0.69555286    -0.01210
Br1678     Br  0.44337919  0.82877938  0.70603444    -0.01200
C1679       C  0.60936491  0.99586630  0.67279762    -0.02320
C1680       C  0.61933080  0.01225687  0.70089575     0.07360
C1681       C  0.62071783  0.00102883  0.72983320    -0.02430
C1682       C  0.60914040  0.97298238  0.73186843    -0.02440
C1683       C  0.59611721  0.95610559  0.70497521     0.07490
C1684       C  0.59738308  0.96776429  0.67493451    -0.02630
Br1685     Br  0.57814807  0.94512922  0.63825359    -0.01180
Br1686     Br  0.60782757  0.01112624  0.63279149    -0.01250
Br1687     Br  0.60899360  0.95728430  0.77222980    -0.01210
Br1688     Br  0.63646240  0.02391427  0.76750978    -0.01200
C1689       C  0.54023525  0.10183291  0.99808388    -0.02320
C1690       C  0.54278975  0.07963213  0.00127321     0.07360
C1691       C  0.52107685  0.05409199  0.50996409    -0.02430
C1692       C  0.49539889  0.05025950  0.51339075    -0.02440
C1693       C  0.49247187  0.07162427  0.50631060     0.07490
C1694       C  0.51480300  0.09792778  0.00073799    -0.02630
Br1695     Br  0.51093860  0.12758285  0.99203497    -0.01180
Br1696     Br  0.57123689  0.13740143  0.98763082    -0.01250
Br1697     Br  0.46407986  0.01572375  0.52532961    -0.01210
Br1698     Br  0.52511776  0.02417479  0.51564162    -0.01200
C1699       C  0.64963581  0.10529436  0.81612843    -0.02320
C1700       C  0.63025541  0.10693671  0.79933141     0.07360
C1701       C  0.61426304  0.11463599  0.81720837    -0.02430
C1702       C  0.61543445  0.11761417  0.85150816    -0.02440
C1703       C  0.63253455  0.11283762  0.86876558     0.07490
C1704       C  0.65073722  0.10818370  0.85060607    -0.02630
Br1705     Br  0.67607444  0.10384438  0.87279336    -0.01180
Br1706     Br  0.67364920  0.09725368  0.79253857    -0.01250
Br1707     Br  0.59372946  0.12888644  0.87476675    -0.01210
Br1708     Br  0.59094462  0.12181643  0.79465574    -0.01200
C1709       C  0.63396487  0.14994542  0.57529621    -0.02320
C1710       C  0.63982277  0.15633208  0.54091030     0.07360
C1711       C  0.64533193  0.18099508  0.03054867    -0.02430
C1712       C  0.64215392  0.19844883  0.55060880    -0.02440
C1713       C  0.63864325  0.19397323  0.58457487     0.07490
C1714       C  0.63467544  0.16965373  0.59959222    -0.02630
Br1715     Br  0.63024245  0.17359201  0.68958387    -0.01180
Br1716     Br  0.62290888  0.11316925  0.58458339    -0.01250
Br1717     Br  0.64374139  0.22888026  0.03236997    -0.01210
Br1718     Br  0.65997119  0.19327409  0.98663869    -0.01200
C1719       C  0.44079847  0.93585675  0.93787439    -0.02320
C1720       C  0.42244484  0.92159390  0.91332338     0.07360
C1721       C  0.43074672  0.91264238  0.88582501    -0.02430
C1722       C  0.45231337  0.90908154  0.88837967    -0.02440
C1723       C  0.46662897  0.91704563  0.91747497     0.07490
C1724       C  0.46293297  0.93342065  0.94022891    -0.02630
Br1725     Br  0.48718606  0.95122808  0.97538349    -0.01180
Br1726     Br  0.43365919  0.95638483  0.96954364    -0.01250
Br1727     Br  0.45954710  0.89072698  0.85384994    -0.01210
Br1728     Br  0.41166069  0.90403895  0.84608742    -0.01200
C1729       C  0.49808472  0.85046266  0.59391028    -0.02320
C1730       C  0.52394946  0.86385401  0.60677414     0.07360
C1731       C  0.54690466  0.87528024  0.58548389    -0.02430
C1732       C  0.54417625  0.87680077  0.55193415    -0.02440
C1733       C  0.51830188  0.86608468  0.53960705     0.07490
C1734       C  0.49523140  0.85134277  0.56039441    -0.02630
Br1735     Br  0.45954885  0.83203731  0.54315326    -0.01180
Br1736     Br  0.46637707  0.83055873  0.62219711    -0.01250
Br1737     Br  0.57623582  0.89592296  0.02377956    -0.01210
Br1738     Br  0.58228706  0.89054004  0.60227987    -0.01200
C1739       C  0.58520579  0.97848682  0.98895347    -0.02320
C1740       C  0.57906357  0.96630380  0.95757432     0.07360
C1741       C  0.59053010  0.98263436  0.92967493    -0.02430
C1742       C  0.60549814  0.01096080  0.93320827    -0.02440
C1743       C  0.60909802  0.02293425  0.96441892     0.07490
C1744       C  0.60006793  0.00677654  0.99228158    -0.02630
Br1745     Br  0.60521967  0.02444980  0.53273608    -0.01180
Br1746     Br  0.57246458  0.95755361  0.52678357    -0.01250
Br1747     Br  0.61776922  0.03350115  0.89517183    -0.01210
Br1748     Br  0.58226175  0.96676852  0.88647015    -0.01200
C1749       C  0.19296606  0.51520791  0.90402337    -0.02320
C1750       C  0.19169979  0.50979561  0.86935374     0.07360
C1751       C  0.17351997  0.48146576  0.86196042    -0.02430
C1752       C  0.15098129  0.46428599  0.88252846    -0.02440
C1753       C  0.14955381  0.47198978  0.91486051     0.07490
C1754       C  0.17218464  0.49632870  0.92618720    -0.02630
Br1755     Br  0.17447396  0.50391123  0.97262753    -0.01180
Br1756     Br  0.21934766  0.54862962  0.92383348    -0.01250
Br1757     Br  0.12193969  0.43036646  0.86519140    -0.01210
Br1758     Br  0.18154533  0.46260272  0.82912063    -0.01200
C1759       C  0.13940901  0.48754969  0.80765746    -0.02320
C1760       C  0.14285108  0.47500371  0.77973991     0.07360
C1761       C  0.16917604  0.48616221  0.76600435    -0.02430
C1762       C  0.19106047  0.51008641  0.77929119    -0.02440
C1763       C  0.18778620  0.51906423  0.81063710     0.07490
C1764       C  0.16123817  0.51265341  0.81717903    -0.02630
Br1765     Br  0.15566616  0.53992000  0.80460536    -0.01180
Br1766     Br  0.10443931  0.47654242  0.82668452    -0.01250
Br1767     Br  0.21405591  0.53535891  0.74603659    -0.01210
Br1768     Br  0.17537067  0.46941543  0.72810608    -0.01200
C1769       C  0.25778704  0.55497597  0.86005063    -0.02320
C1770       C  0.23740769  0.53599507  0.83813556     0.07360
C1771       C  0.24322293  0.51667166  0.82439335    -0.02430
C1772       C  0.26477324  0.51507558  0.83488413    -0.02440
C1773       C  0.28717811  0.53758383  0.85110060     0.07490
C1774       C  0.27866574  0.55227522  0.86989403    -0.02630
Br1775     Br  0.28186647  0.55507975  0.91660024    -0.01180
Br1776     Br  0.26455142  0.58973122  0.87386080    -0.01250
Br1777     Br  0.25868966  0.47892017  0.82991101    -0.01210
Br1778     Br  0.23393417  0.50014344  0.78169688    -0.01200
C1779       C  0.34559412  0.78761933  0.79009041    -0.02320
C1780       C  0.32343298  0.76104089  0.79415525     0.07360
C1781       C  0.30375683  0.75317672  0.76997837    -0.02430
C1782       C  0.30247440  0.77344569  0.75354807    -0.02440
C1783       C  0.32025661  0.80113234  0.76162772     0.07490
C1784       C  0.34136458  0.80772035  0.78209200    -0.02630
Br1785     Br  0.36903349  0.84411179  0.79332888    -0.01180
Br1786     Br  0.37717893  0.79233259  0.76802650    -0.01250
Br1787     Br  0.27546208  0.76340600  0.72202384    -0.01210
Br1788     Br  0.28015447  0.71633627  0.75635482    -0.01200
C1789       C  0.34831631  0.79363346  0.86064137    -0.02320
C1790       C  0.32411043  0.76709469  0.85610156     0.07360
C1791       C  0.30257368  0.76255257  0.87869087    -0.02430
C1792       C  0.30072264  0.78415137  0.89169569    -0.02440
C1793       C  0.32340566  0.81040661  0.89114306     0.07490
C1794       C  0.34776801  0.81404880  0.87932722    -0.02630
Br1795     Br  0.38087428  0.84595642  0.89345462    -0.01180
Br1796     Br  0.38415209  0.80442628  0.84614944    -0.01250
Br1797     Br  0.26793443  0.77743359  0.91364049    -0.01210
Br1798     Br  0.28161276  0.73034906  0.90341921    -0.01200
C1799       C  0.17863473  0.65710357  0.92083642    -0.02320
C1800       C  0.15097429  0.63873752  0.91862095     0.07360
C1801       C  0.14154295  0.61809503  0.89510842    -0.02430
C1802       C  0.15983366  0.61549082  0.87421477    -0.02440
C1803       C  0.18835659  0.63642291  0.87227592     0.07490
C1804       C  0.19704875  0.65484924  0.89977262    -0.02630
Br1805     Br  0.23134465  0.66994167  0.41832176    -0.01180
Br1806     Br  0.19115977  0.68526646  0.45397382    -0.01250
Br1807     Br  0.14414009  0.57932317  0.85632993    -0.01210
Br1808     Br  0.10292093  0.59125189  0.89420200    -0.01200
C1809       C  0.16769555  0.61952903  0.80458662    -0.02320
C1810       C  0.19524608  0.63764625  0.80877975     0.07360
C1811       C  0.20588214  0.65905855  0.78548293    -0.02430
C1812       C  0.18954753  0.66872820  0.77661131    -0.02440
C1813       C  0.16177302  0.65414059  0.78563779     0.07490
C1814       C  0.15156861  0.63014860  0.80287662    -0.02630
Br1815     Br  0.11389204  0.60697868  0.81307763    -0.01180
Br1816     Br  0.15875549  0.59236818  0.77159661    -0.01250
Br1817     Br  0.20437553  0.69957957  0.74858419    -0.01210
Br1818     Br  0.22325583  0.65587410  0.74631689    -0.01200
C1819       C  0.22563344  0.60597796  0.81932311    -0.02320
C1820       C  0.21131980  0.61210279  0.84384346     0.07360
C1821       C  0.20079206  0.59319166  0.87027165    -0.02430
C1822       C  0.19565484  0.56680825  0.86638807    -0.02440
C1823       C  0.21052363  0.56065505  0.84330369     0.07490
C1824       C  0.22673034  0.58211448  0.82025223    -0.02630
Br1825     Br  0.25492026  0.58258060  0.79284698    -0.01180
Br1826     Br  0.24917689  0.63220911  0.78735788    -0.01250
Br1827     Br  0.16280624  0.53993586  0.88825126    -0.01210
Br1828     Br  0.19761109  0.60194482  0.91545834    -0.01200
C1829       C  0.26216459  0.66915871  0.84889474    -0.02320
C1830       C  0.23744152  0.66687853  0.84362968     0.07360
C1831       C  0.24046136  0.69236706  0.83862831    -0.02430
C1832       C  0.26624952  0.71663600  0.83162216    -0.02440
C1833       C  0.29136731  0.71746814  0.83098838     0.07490
C1834       C  0.28754381  0.69169700  0.83818197    -0.02630
Br1835     Br  0.31366482  0.68160472  0.83135212    -0.01180
Br1836     Br  0.26378198  0.64567396  0.87893269    -0.01250
Br1837     Br  0.26489520  0.74837435  0.82378622    -0.01210
Br1838     Br  0.20970300  0.69594996  0.84609235    -0.01200
C1839       C  0.38018839  0.61886511  0.86929127    -0.02320
C1840       C  0.40144822  0.62161567  0.84793868     0.07360
C1841       C  0.39371425  0.59775330  0.82940003    -0.02430
C1842       C  0.36657883  0.57744255  0.82453576    -0.02440
C1843       C  0.34441223  0.57295239  0.84658650     0.07490
C1844       C  0.35248536  0.59709530  0.86575799    -0.02630
Br1845     Br  0.32843426  0.60829768  0.87837457    -0.01180
Br1846     Br  0.38870195  0.64346555  0.90645541    -0.01250
Br1847     Br  0.36515364  0.56639452  0.77930491    -0.01210
Br1848     Br  0.41716917  0.58462362  0.82024665    -0.01200
C1849       C  0.44536217  0.77164498  0.76334023    -0.02320
C1850       C  0.45055366  0.76723638  0.79583541     0.07360
C1851       C  0.47936896  0.77947202  0.80105166    -0.02430
C1852       C  0.49948526  0.80049309  0.78094138    -0.02440
C1853       C  0.49280523  0.80498561  0.75086613     0.07490
C1854       C  0.46682475  0.78627859  0.74035322    -0.02630
Br1855     Br  0.46104785  0.77900128  0.69403455    -0.01180
Br1856     Br  0.41238659  0.76370432  0.74630128    -0.01250
Br1857     Br  0.53654793  0.82213357  0.79386699    -0.01210
Br1858     Br  0.49362806  0.77025552  0.83619812    -0.01200
C1859       C  0.46986431  0.79438489  0.90402987    -0.02320
C1860       C  0.48128261  0.82060918  0.89218016     0.07360
C1861       C  0.47483373  0.82412325  0.86157186    -0.02430
C1862       C  0.45397288  0.80213810  0.84505074    -0.02440
C1863       C  0.44470053  0.77466145  0.85330446     0.07490
C1864       C  0.45273539  0.77141051  0.88441843    -0.02630
Br1865     Br  0.43630205  0.73730243  0.90558244    -0.01180
Br1866     Br  0.47818250  0.79050404  0.94755176    -0.01250
Br1867     Br  0.43964083  0.81164395  0.81057984    -0.01210
Br1868     Br  0.49503026  0.85944803  0.84181520    -0.01200
C1869       C  0.38617861  0.75233831  0.85577307    -0.02320
C1870       C  0.39880493  0.74674209  0.82748495     0.07360
C1871       C  0.37952994  0.73158726  0.80318182    -0.02430
C1872       C  0.35658848  0.73379611  0.79985502    -0.02440
C1873       C  0.34580298  0.74174627  0.82706866     0.07490
C1874       C  0.35868853  0.74438667  0.85620091    -0.02630
Br1875     Br  0.33790281  0.73220963  0.89687331    -0.01180
Br1876     Br  0.40130734  0.76921210  0.89740550    -0.01250
Br1877     Br  0.33806045  0.72039174  0.75972180    -0.01210
Br1878     Br  0.38133927  0.70448045  0.77700645    -0.01200
C1879       C  0.40659009  0.69987894  0.84698484    -0.02320
C1880       C  0.42723950  0.72337348  0.82946298     0.07360
C1881       C  0.44449077  0.71720526  0.81030871    -0.02430
C1882       C  0.44971628  0.69800440  0.82091337    -0.02440
C1883       C  0.42923659  0.67448651  0.83845104     0.07490
C1884       C  0.40509038  0.67498045  0.84313749    -0.02630
Br1885     Br  0.37276832  0.65003841  0.81999823    -0.01180
Br1886     Br  0.37626284  0.69649805  0.87179159    -0.01250
Br1887     Br  0.48513124  0.70674389  0.80712532    -0.01210
Br1888     Br  0.44943489  0.72067448  0.76328646    -0.01200
C1889       C  0.30813240  0.50129334  0.77061225    -0.02320
C1890       C  0.31585045  0.48378111  0.78024113     0.07360
C1891       C  0.32673599  0.48767383  0.81084262    -0.02430
C1892       C  0.33141525  0.50959782  0.83061197    -0.02440
C1893       C  0.31883500  0.52387640  0.82511650     0.07490
C1894       C  0.30927642  0.52112601  0.79268898    -0.02630
Br1895     Br  0.30225795  0.54715654  0.77577424    -0.01180
Br1896     Br  0.29560534  0.49762210  0.72721351    -0.01250
Br1897     Br  0.36222508  0.52489636  0.85690422    -0.01210
Br1898     Br  0.33759072  0.46424451  0.82499188    -0.01200
C1899       C  0.50520328  0.32701610  0.66761903    -0.02320
C1900       C  0.47965204  0.32051690  0.65691506     0.07360
C1901       C  0.47114462  0.30677581  0.62677247    -0.02430
C1902       C  0.48500399  0.29534807  0.61364011    -0.02440
C1903       C  0.51339949  0.31115247  0.61447963     0.07490
C1904       C  0.52216797  0.32204708  0.64639499    -0.02630
Br1905     Br  0.55539650  0.32926915  0.66218353    -0.01180
Br1906     Br  0.51881587  0.34580807  0.70850910    -0.01250
Br1907     Br  0.46916350  0.26214366  0.63826571    -0.01210
Br1908     Br  0.43590584  0.29298963  0.61089713    -0.01200
C1909       C  0.35905729  0.35018375  0.68275994    -0.02320
C1910       C  0.36748596  0.34658899  0.71247703     0.07360
C1911       C  0.35748079  0.35164707  0.74208446    -0.02430
C1912       C  0.34196246  0.36323269  0.74202863    -0.02440
C1913       C  0.33646793  0.37012519  0.71224311     0.07490
C1914       C  0.34356273  0.36186096  0.68267176    -0.02630
Br1915     Br  0.33358970  0.36814801  0.64164266    -0.01180
Br1916     Br  0.37142496  0.34238142  0.64195449    -0.01250
Br1917     Br  0.33163492  0.37280789  0.78320763    -0.01210
Br1918     Br  0.36647090  0.34435482  0.78325251    -0.01200
C1919       C  0.33158623  0.47199491  0.57708656    -0.02320
C1920       C  0.32387580  0.44881434  0.55763698     0.07360
C1921       C  0.30869552  0.42299567  0.57200405    -0.02430
C1922       C  0.30412551  0.42075854  0.60608565    -0.02440
C1923       C  0.31565751  0.44429839  0.62581633     0.07490
C1924       C  0.32762757  0.46974389  0.61112416    -0.02630
Br1925     Br  0.33920490  0.50164941  0.63786967    -0.01180
Br1926     Br  0.34811246  0.50699386  0.55726896    -0.01250
Br1927     Br  0.28420564  0.38544619  0.62556104    -0.01210
Br1928     Br  0.29704977  0.39070945  0.04597637    -0.01200
C1929       C  0.30413079  0.48487705  0.90367583    -0.02320
C1930       C  0.32528808  0.49652281  0.92552108     0.07360
C1931       C  0.33681833  0.52431558  0.93391031    -0.02430
C1932       C  0.33263933  0.54099897  0.91416511    -0.02440
C1933       C  0.31501713  0.52912391  0.88737457     0.07490
C1934       C  0.29586604  0.50094726  0.89140381    -0.02630
Br1935     Br  0.26026021  0.48948301  0.90876678    -0.01180
Br1936     Br  0.28266356  0.44677955  0.89379905    -0.01250
Br1937     Br  0.34362242  0.57575576  0.93295680    -0.01210
Br1938     Br  0.35619768  0.53940722  0.97386889    -0.01200
C1939       C  0.43668601  0.28953439  0.84544202    -0.02320
C1940       C  0.41738459  0.29016630  0.86647638     0.07360
C1941       C  0.39359618  0.28565485  0.85355090    -0.02430
C1942       C  0.39166655  0.28554442  0.81948219    -0.02440
C1943       C  0.41383823  0.29096871  0.79890604     0.07490
C1944       C  0.43507378  0.29027877  0.81160360    -0.02630
Br1945     Br  0.46350816  0.29363018  0.78259740    -0.01180
Br1946     Br  0.46690178  0.29077106  0.86321024    -0.01250
Br1947     Br  0.36038100  0.28155474  0.80120943    -0.01210
Br1948     Br  0.36574246  0.28417098  0.88193375    -0.01200
C1949       C  0.48800017  0.32883371  0.53928163    -0.02320
C1950       C  0.47791475  0.31090931  0.51249699     0.07360
C1951       C  0.49090304  0.29731872  0.50260331    -0.02430
C1952       C  0.51162672  0.29970856  0.52164234    -0.02440
C1953       C  0.51897017  0.31612491  0.55106872     0.07490
C1954       C  0.51286106  0.33596203  0.55032683    -0.02630
Br1955     Br  0.54040772  0.36783445  0.02785347    -0.01180
Br1956     Br  0.47540429  0.35186562  0.05286021    -0.01250
Br1957     Br  0.52599909  0.27840600  0.50624540    -0.01210
Br1958     Br  0.47833895  0.27356933  0.46481220    -0.01200
C1959       C  0.36832065  0.35421401  0.96290184    -0.02320
C1960       C  0.39659184  0.36712974  0.96133479     0.07360
C1961       C  0.41306653  0.39548154  0.96433730    -0.02430
C1962       C  0.40155803  0.41050420  0.97185143    -0.02440
C1963       C  0.37341482  0.39815215  0.97003722     0.07490
C1964       C  0.35674505  0.36988253  0.96573090    -0.02630
Br1965     Br  0.31821342  0.35263771  0.96569485    -0.01180
Br1966     Br  0.34573345  0.31547362  0.95895376    -0.01250
Br1967     Br  0.42520314  0.44794114  0.98531866    -0.01210
Br1968     Br  0.45160939  0.41465714  0.95622779    -0.01200
C1969       C  0.45433745  0.49483417  0.71958729    -0.02320
C1970       C  0.46106622  0.51610553  0.74202224     0.07360
C1971       C  0.44650068  0.51037870  0.77217032    -0.02430
C1972       C  0.42170467  0.48558853  0.77576692    -0.02440
C1973       C  0.41128769  0.46841218  0.74850024     0.07490
C1974       C  0.42918107  0.47063306  0.72304907    -0.02630
Br1975     Br  0.41716710  0.44216295  0.69071403    -0.01180
Br1976     Br  0.47778948  0.50017307  0.68216528    -0.01250
Br1977     Br  0.40173661  0.47569029  0.81673899    -0.01210
Br1978     Br  0.45785972  0.53723017  0.80633527    -0.01200
C1979       C  0.44072051  0.64130117  0.78357624    -0.02320
C1980       C  0.44881556  0.64559909  0.81697499     0.07360
C1981       C  0.47183878  0.64370898  0.82192261    -0.02430
C1982       C  0.47904458  0.62991870  0.79959109    -0.02440
C1983       C  0.47092779  0.62607358  0.76757644     0.07490
C1984       C  0.45261006  0.63279426  0.75917738    -0.02630
Br1985     Br  0.44370182  0.62989238  0.71388053    -0.01180
Br1986     Br  0.41370961  0.64641614  0.76855865    -0.01250
Br1987     Br  0.50206897  0.61804203  0.81284867    -0.01210
Br1988     Br  0.50521501  0.67208392  0.83934361    -0.01200
C1989       C  0.53971429  0.44503542  0.75341115    -0.02320
C1990       C  0.54635474  0.46575265  0.73135160     0.07360
C1991       C  0.52776533  0.46188141  0.70821545    -0.02430
C1992       C  0.50283539  0.43709710  0.70659062    -0.02440
C1993       C  0.49654981  0.41612253  0.72801958     0.07490
C1994       C  0.51491370  0.42028791  0.75172824    -0.02630
Br1995     Br  0.50788170  0.39127613  0.77983236    -0.01180
Br1996     Br  0.56563959  0.44891960  0.78370011    -0.01250
Br1997     Br  0.47741253  0.43209016  0.67498931    -0.01210
Br1998     Br  0.53643607  0.49044899  0.67857917    -0.01200
C1999       C  0.66738781  0.47024800  0.62782732    -0.02320
C2000       C  0.64827857  0.44208655  0.62730809     0.07360
C2001       C  0.63577483  0.43250734  0.65919587    -0.02430
C2002       C  0.63478796  0.45102109  0.68191047    -0.02440
C2003       C  0.64424199  0.47783953  0.67181565     0.07490
C2004       C  0.65911342  0.48645872  0.64187375    -0.02630
Br2005     Br  0.67715434  0.52269813  0.62564465    -0.01180
Br2006     Br  0.69961417  0.48108717  0.65067440    -0.01250
Br2007     Br  0.62046796  0.43905468  0.72589103    -0.01210
Br2008     Br  0.61645922  0.39557391  0.67291467    -0.01200
C2009       C  0.58219264  0.58940246  0.67254392    -0.02320
C2010       C  0.57614913  0.60065654  0.70005063     0.07360
C2011       C  0.59215215  0.60846251  0.72757241    -0.02430
C2012       C  0.61112209  0.60120081  0.72931975    -0.02440
C2013       C  0.61315851  0.58509320  0.70445497     0.07490
C2014       C  0.60030889  0.58110835  0.67488133    -0.02630
Br2015     Br  0.60425846  0.56118326  0.63893176    -0.01180
Br2016     Br  0.56448325  0.58391865  0.63206560    -0.01250
Br2017     Br  0.63302935  0.61159578  0.76697082    -0.01210
Br2018     Br  0.58603478  0.62578489  0.76481649    -0.01200
C2019       C  0.47467631  0.52500662  0.90001933    -0.02320
C2020       C  0.47715810  0.54983766  0.89554700     0.07360
C2021       C  0.45392792  0.54989214  0.89189902    -0.02430
C2022       C  0.42945919  0.52858957  0.90458307    -0.02440
C2023       C  0.42686375  0.50436538  0.91261051     0.07490
C2024       C  0.44887708  0.50154969  0.90608375    -0.02630
Br2025     Br  0.44383179  0.46653334  0.90541934    -0.01180
Br2026     Br  0.50661124  0.52398932  0.89965245    -0.01250
Br2027     Br  0.40181911  0.53484845  0.91727193    -0.01210
Br2028     Br  0.45709439  0.58145548  0.87575361    -0.01200
C2029       C  0.49836761  0.58421821  0.58889826    -0.02320
C2030       C  0.50272221  0.60612241  0.60906620     0.07360
C2031       C  0.51186857  0.63138819  0.59533175    -0.02430
C2032       C  0.51703402  0.63490396  0.56152942    -0.02440
C2033       C  0.51315867  0.61316447  0.54154052     0.07490
C2034       C  0.50375956  0.58781281  0.55522733    -0.02630
Br2035     Br  0.50041027  0.55850622  0.02840766    -0.01180
Br2036     Br  0.48719337  0.54965595  0.60717445    -0.01250
Br2037     Br  0.52864647  0.66928702  0.54268388    -0.01210
Br2038     Br  0.51663392  0.66100419  0.62265100    -0.01200
C2039       C  0.48951962  0.67644251  0.90842626    -0.02320
C2040       C  0.48531596  0.65213022  0.91879363     0.07360
C2041       C  0.45882802  0.63009495  0.92056377    -0.02430
C2042       C  0.43958343  0.62841560  0.89980193    -0.02440
C2043       C  0.44557377  0.65142482  0.88049676     0.07490
C2044       C  0.46895059  0.67635504  0.89154517    -0.02630
Br2045     Br  0.47255943  0.71042913  0.89028659    -0.01180
Br2046     Br  0.52430430  0.70914854  0.91456698    -0.01250
Br2047     Br  0.40610013  0.59388868  0.90296622    -0.01210
Br2048     Br  0.44938438  0.60296181  0.95325529    -0.01200
C2049       C  0.56013732  0.43803461  0.94518546    -0.02320
C2050       C  0.56217275  0.45843652  0.46630133     0.07360
C2051       C  0.54052113  0.45269620  0.48815382    -0.02430
C2052       C  0.51645151  0.42698625  0.48772858    -0.02440
C2053       C  0.51328719  0.40761046  0.46370385     0.07490
C2054       C  0.53573726  0.41287789  0.94356935    -0.02630
Br2055     Br  0.53429753  0.38491684  0.91553342    -0.01180
Br2056     Br  0.59127469  0.44340954  0.91980571    -0.01250
Br2057     Br  0.48869665  0.41897632  0.52091866    -0.01210
Br2058     Br  0.54303527  0.48034073  0.51763717    -0.01200
C2059       C  0.68395690  0.56837425  0.86020633    -0.02320
C2060       C  0.67721063  0.54448675  0.87592221     0.07360
C2061       C  0.67316570  0.52219805  0.85702041    -0.02430
C2062       C  0.67007307  0.52163585  0.82335498    -0.02440
C2063       C  0.67134035  0.54349887  0.80865231     0.07490
C2064       C  0.68059592  0.56775075  0.82639633    -0.02630
Br2065     Br  0.68457181  0.59855768  0.80561232    -0.01180
Br2066     Br  0.69421544  0.60068056  0.88532223    -0.01250
Br2067     Br  0.66118549  0.48979097  0.79786675    -0.01210
Br2068     Br  0.66869635  0.49119536  0.87804371    -0.01200
C2069       C  0.63698814  0.47847248  0.55663024    -0.02320
C2070       C  0.65243741  0.48654499  0.52697552     0.07360
C2071       C  0.66215394  0.47031830  0.51461349    -0.02430
C2072       C  0.65765685  0.44785828  0.53279793    -0.02440
C2073       C  0.64407120  0.44218151  0.56446455     0.07490
C2074       C  0.62734565  0.45249849  0.56777599    -0.02630
Br2075     Br  0.59346497  0.42987049  0.54719660    -0.01180
Br2076     Br  0.61871440  0.49535811  0.57449403    -0.01250
Br2077     Br  0.67265448  0.42860136  0.51333476    -0.01210
Br2078     Br  0.68449777  0.48066798  0.47474769    -0.01200
C2079       C  0.61642102  0.59311994  0.92504929    -0.02320
C2080       C  0.62280812  0.59079721  0.95696523     0.07360
C2081       C  0.61992428  0.60577632  0.98259765    -0.02430
C2082       C  0.60774044  0.62027898  0.97700225    -0.02440
C2083       C  0.59879388  0.62017988  0.94577880     0.07490
C2084       C  0.60461239  0.60786492  0.91953588    -0.02630
Br2085     Br  0.59286749  0.60814724  0.87670814    -0.01180
Br2086     Br  0.62175277  0.57424358  0.88892748    -0.01250
Br2087     Br  0.60003798  0.63736328  0.51287376    -0.01210
Br2088     Br  0.62929438  0.60345219  0.52604554    -0.01200
loop_ 
_geom_bond_atom_site_label_1 
_geom_bond_atom_site_label_2 
_geom_bond_distance 
_geom_bond_site_symmetry_2 
_ccdc_geom_bond_type 
In1           O4   2.203       .  S
In1          O12   2.213       .  S
In1           O9   2.192       .  S
In1          O10   2.218       .  S
In1          O13   2.274       .  S
In1        O1047   2.236       .  S
In1        O1050   2.299       .  S
In1        O1052   2.288       .  S
C2            O8   1.269       .  A
C2         O1054   1.257   1_554  A
C2         C1026   1.502       .  S
O3        In1045   2.236       .  S
O3           C11   1.264       .  A
O4         C1055   1.261       .  A
C5           O12   1.255       .  A
C5         O1050   1.269       .  A
C5         C1036   1.487       .  S
O6        In1045   2.298       .  S
O6         C1049   1.269       .  A
C7            O9   1.258       .  A
C7           O13   1.266       .  A
C7         C1016   1.474       .  S
O8        In1045   2.288   1_554  S
O10        C1046   1.257       .  A
C11        O1048   1.261       .  A
C11        C1006   1.472       .  S
In14         O16   2.265       .  S
In14         O17   2.205       .  S
In14         O25   2.191       .  S
In14         O19   2.307       .  S
In14         O21   2.297       .  S
In14         O23   2.270       .  S
In14         O26   2.223       .  S
In14       O1066   2.197       .  S
C15          O21   1.267       .  A
C15          O23   1.254       .  A
C15         C996   1.495       .  S
O16          C24   1.264       .  A
O17          C24   1.259       .  A
C18          O25   1.251       .  A
C18          O19   1.272       .  A
C18        C1039   1.477       .  S
C20          O22   1.264   1_554  A
C20        O1070   1.268   1_554  A
C20         C989   1.465       .  S
O22       In1058   2.197       .  S
C24         C976   1.463       .  S
O26        C1064   1.268       .  A
In27         O29   2.272       .  S
In27         O30   2.204       .  S
In27         O38   2.203       .  S
In27         O32   2.258       .  S
In27         O34   2.255       .  S
In27         O35   2.220       .  S
In27         O36   2.204       .  S
In27         O39   2.225       .  S
C28          O34   1.266       .  A
C28          O36   1.253       .  A
C28         C959   1.488       .  S
O29          C37   1.263       .  A
O30          C37   1.256       .  A
C31          O38   1.257       .  A
C31          O32   1.264       .  A
C31         C969   1.477       .  S
C33          O35   1.262       .  A
C33          O39   1.261       .  A
C33         C946   1.469       .  S
C37        C1019   1.471       .  S
In40         O42   2.228       .  S
In40         O43   2.220       .  S
In40         O51   2.203       .  S
In40         O45   2.255       .  S
In40         O47   2.226       .  S
In40         O48   2.194       .  S
In40         O49   2.241       .  S
In40         O52   2.251       .  S
C41          O47   1.262       .  A
C41          O49   1.257       .  A
C41         C939   1.474       .  S
O42          C50   1.259       .  A
O43          C50   1.258       .  A
C44          O51   1.258       .  A
C44          O45   1.265       .  A
C44         C966   1.477       .  S
C46          O48   1.261       .  A
C46          O52   1.262       .  A
C46         C926   1.468       .  S
C50         C986   1.467       .  S
In53         O55   2.263       .  S
In53         O56   2.195       .  S
In53         O64   2.202       .  S
In53         O61   2.224       .  S
In53         O62   2.209       .  S
In53       O1102   2.266       .  S
In53       O1104   2.260       .  S
In53       O1109   2.236       .  S
C54          O60   1.268       .  A
C54        O1106   1.259       .  A
C54         C906   1.480   1_556  S
O55          C63   1.267       .  A
O56          C63   1.260       .  A
C57          O64   1.257       .  A
C57        O1102   1.268       .  A
C57         C916   1.474       .  S
O58       In1097   2.266       .  S
O58        C1101   1.268       .  A
C59          O65   1.258       .  A
C59        O1105   1.263       .  A
C59        C1009   1.480       .  S
O60       In1097   2.260       .  S
O61        C1103   1.263       .  A
O62        C1098   1.259       .  A
C63         C896   1.475       .  S
O65       In1097   2.236       .  S
In66         O68   2.228       .  S
In66         O77   2.174       .  S
In66         O71   2.256       .  S
In66         O73   2.263       .  S
In66         O74   2.224       .  S
In66         O75   2.180       .  S
In66         O78   2.249       .  S
In66       O1113   2.208       .  S
C67          O73   1.274       .  A
C67          O75   1.259       .  A
C67         C886   1.499       .  S
O68        C1120   1.269       .  A
O69       In1110   2.208   1_554  S
O69          C76   1.269       .  A
C70          O77   1.259       .  A
C70          O71   1.274       .  A
C70         C919   1.476       .  S
C72          O74   1.268       .  A
C72          O78   1.264       .  A
C72         C979   1.471       .  S
C76        O1112   1.269       .  A
C76         C876   1.479       .  S
In79         O81   2.233       .  S
In79         O82   2.212       .  S
In79         O90   2.213       .  S
In79         O84   2.292       .  S
In79         O86   2.276       .  S
In79         O87   2.197       .  S
In79         O88   2.232       .  S
In79         O91   2.277       .  S
C80          O86   1.268       .  A
C80          O88   1.256       .  A
C80         C856   1.492       .  S
O81          C89   1.261       .  A
O82          C89   1.260       .  A
C83          O90   1.255       .  A
C83          O84   1.268       .  A
C83         C866   1.488       .  S
C85          O87   1.258       .  A
C85          O91   1.266       .  A
C85         C899   1.472       .  S
C89         C949   1.470       .  S
In92         O94   2.265       .  S
In92         O95   2.197       .  S
In92        O103   2.207       .  S
In92         O97   2.270       .  S
In92         O99   2.275       .  S
In92        O100   2.203       .  S
In92        O101   2.230       .  S
In92        O104   2.252       .  S
C93          O99   1.270       .  A
C93         O101   1.259       .  A
C93         C846   1.484       .  S
O94         C102   1.262       .  A
O95         C102   1.263       .  A
C96         O103   1.258       .  A
C96          O97   1.272       .  A
C96         C869   1.489       .  S
C98         O100   1.262       .  A
C98         O104   1.267       .  A
C98         C879   1.477       .  S
C102        C929   1.470       .  S
C105        C806   1.632       .  S
C105        C819   1.591       .  S
C105        C826   1.644       .  S
C105        C836   1.633       .  S
C106        C796   1.614       .  S
C106        C839   1.640       .  S
C106        C936   1.614       .  S
C106        C999   1.631       .  S
C107        C759   1.621       .  S
C107        C766   1.625       .  S
C107        C776   1.639       .  S
C107        C786   1.624       .  S
C108        C736   1.602       .  S
C108        C746   1.641       .  S
C108        C789   1.635       .  S
C108        C829   1.621       .  S
C109        C706   1.637       .  S
C109        C719   1.598       .  S
C109        C726   1.625       .  S
C109        C779   1.623       .  S
C110        C729   1.620       .  S
C110        C799   1.672       .  S
C110        C849   1.591       .  S
C110        C889   1.610       .  S
In111       O113   2.264       .  S
In111       O114   2.217       .  S
In111       O122   2.216       .  S
In111       O116   2.244       .  S
In111       O118   2.260       .  S
In111       O120   2.198       .  S
In111       O123   2.231       .  S
In111      O1163   2.218       .  S
C112        O118   1.268       .  A
C112        O120   1.258       .  A
C112        C696   1.477       .  S
O113        C121   1.262       .  A
O114        C121   1.264       .  A
C115        O122   1.260       .  A
C115        O116   1.267       .  A
C115        C816   1.472       .  S
C117        O119   1.264       .  A
C117       O1167   1.262   1_554  A
C117        C689   1.478       .  S
O119      In1155   2.219   1_554  S
C121        C679   1.476       .  S
O123       C1161   1.262       .  A
In124       O126   2.309       .  S
In124       O127   2.234       .  S
In124       O135   2.193       .  S
In124       O132   2.183       .  S
In124       O133   2.215       .  S
In124      O1173   2.272       .  S
In124      O1175   2.321       .  S
In124      O1180   2.245       .  S
C125        O131   1.265       .  A
C125       O1177   1.259   1_554  A
C125        C666   1.516       .  S
O126        C134   1.269       .  A
O127        C134   1.256       .  A
C128        O135   1.255       .  A
C128       O1173   1.267       .  A
C128        C699   1.465       .  S
O129      In1168   2.275       .  S
O129       C1172   1.267       .  A
C130        O132   1.261       .  A
C130       O1180   1.262       .  A
C130        C646   1.458       .  S
O131      In1168   2.321   1_554  S
O133       C1169   1.259       .  A
C134        C659   1.505       .  S
O136      In1168   2.242   1_554  S
O136       C1174   1.262   1_554  A
In137       O139   2.252       .  S
In137       O140   2.206       .  S
In137       O148   2.237       .  S
In137       O142   2.266       .  S
In137       O144   2.284       .  S
In137       O145   2.209       .  S
In137       O146   2.204       .  S
In137       O149   2.252       .  S
C138        O144   1.267       .  A
C138        O146   1.252       .  A
C138        C809   1.496       .  S
O139        C147   1.261       .  A
O140        C147   1.260       .  A
C141        O148   1.256       .  A
C141        O142   1.259       .  A
C141        C639   1.476       .  S
C143        O145   1.262       .  A
C143        O149   1.266       .  A
C143        C686   1.474       .  S
C147        C626   1.457       .  S
In150       O152   2.267       .  S
In150       O153   2.216       .  S
In150       O161   2.206       .  S
In150       O155   2.271       .  S
In150       O157   2.304       .  S
In150       O158   2.294       .  S
In150       O159   2.197       .  S
In150       O162   2.249       .  S
C151        O157   1.269       .  A
C151        O159   1.257       .  A
C151        C616   1.495       .  S
O152        C160   1.261       .  A
O153        C160   1.264       .  A
C154        O161   1.257       .  A
C154        O155   1.268       .  A
C154        C636   1.475       .  S
C156        O158   1.266       .  A
C156        O162   1.261       .  A
C156        C656   1.503       .  S
C160        C606   1.479       .  S
In163       O165   2.274       .  S
In163       O166   2.201       .  S
In163       O174   2.182       .  S
In163       O168   2.298       .  S
In163       O170   2.281       .  S
In163       O171   2.199       .  S
In163       O172   2.244       .  S
In163       O175   2.248       .  S
C164        O170   1.265       .  A
C164        O172   1.255       .  A
C164        C749   1.484       .  S
O165        C173   1.262       .  A
O166        C173   1.260       .  A
C167        O174   1.254       .  A
C167        O168   1.272       .  A
C167        C599   1.476       .  S
C169        O171   1.263       .  A
C169        O175   1.268       .  A
C169       C1630   1.477       .  S
C173        C676   1.473       .  S
In176       O179   2.196       .  S
In176       O187   2.213       .  S
In176       O184   2.218       .  S
In176       O185   2.241       .  S
In176       O188   2.276       .  S
In176      O1222   2.247       .  S
In176      O1225   2.283       .  S
In176      O1227   2.284       .  S
C177        O183   1.262       .  A
C177       O1229   1.258   1_554  A
C177        C576   1.504       .  S
O178      In1220   2.246   1_554  S
O178        C186   1.260   1_554  A
O179       C1230   1.259       .  A
C180        O187   1.256       .  A
C180       O1225   1.265       .  A
C180        C596   1.475   1_545  S
O181      In1220   2.283       .  S
O181       C1224   1.266       .  A
C182        O184   1.258       .  A
C182        O188   1.267       .  A
C182        C569   1.489       .  S
O183      In1220   2.285   1_554  S
O185       C1221   1.258       .  A
C186       O1223   1.259       .  A
C186        C649   1.452   1_556  S
In189       O191   2.261       .  S
In189       O192   2.191       .  S
In189       O200   2.200       .  S
In189       O194   2.283       .  S
In189       O196   2.271       .  S
In189       O197   2.198       .  S
In189       O198   2.258       .  S
In189       O201   2.244       .  S
C190        O196   1.263       .  A
C190        O198   1.257       .  A
C190        C739   1.493       .  S
O191        C199   1.268       .  A
O192        C199   1.258       .  A
C193        O200   1.256       .  A
C193        O194   1.269       .  A
C193        C556   1.474       .  S
C195        O197   1.258       .  A
C195        O201   1.260       .  A
C195        C629   1.462       .  S
C199        C589   1.473       .  S
In202       O204   2.270       .  S
In202       O205   2.198       .  S
In202       O213   2.220       .  S
In202       O207   2.287       .  S
In202       O209   2.279       .  S
In202       O210   2.237       .  S
In202       O211   2.194       .  S
In202       O214   2.253       .  S
C203        O209   1.272       .  A
C203        O211   1.256       .  A
C203        C559   1.484   1_545  S
O204        C212   1.265       .  A
O205        C212   1.263       .  A
C206        O213   1.257       .  A
C206        O207   1.267       .  A
C206        C546   1.498       .  S
C208        O210   1.261       .  A
C208        O214   1.262       .  A
C208        C566   1.487       .  S
C212        C609   1.473       .  S
In215       O217   2.254       .  S
In215       O218   2.191       .  S
In215       O226   2.196       .  S
In215       O220   2.250       .  S
In215       O222   2.251       .  S
In215       O223   2.211       .  S
In215       O224   2.209       .  S
In215       O227   2.255       .  S
C216        O222   1.265       .  A
C216        O224   1.257       .  A
C216        C526   1.470       .  S
O217        C225   1.264       .  A
O218        C225   1.260       .  A
C219        O226   1.257       .  A
C219        O220   1.267       .  A
C219        C536   1.469       .  S
C221        O223   1.261       .  A
C221        O227   1.261       .  A
C221        C506   1.477       .  S
C225        C516   1.470       .  S
In228       O230   2.251       .  S
In228       O231   2.202       .  S
In228       O239   2.194       .  S
In228       O233   2.253       .  S
In228       O235   2.269       .  S
In228       O236   2.212       .  S
In228       O237   2.184       .  S
In228       O240   2.248       .  S
C229        O235   1.265       .  A
C229        O237   1.255       .  A
C229        C716   1.472       .  S
O230        C238   1.263       .  A
O231        C238   1.259       .  A
C232        O239   1.258       .  A
C232        O233   1.268       .  A
C232        C539   1.476   1_455  S
C234        O236   1.260       .  A
C234        O240   1.262       .  A
C234        C486   1.482       .  S
C238        C499   1.467       .  S
In241       O243   2.255   1_556  S
In241       O244   2.183       .  S
In241       O246   2.298       .  S
In241       O248   2.286   1_556  S
In241       O250   2.216       .  S
In241      O1296   2.207       .  S
In241      O1293   2.201       .  S
In241      O1297   2.261       .  S
C242        O248   1.271       .  A
C242        O250   1.253   1_554  A
C242        C466   1.495       .  S
O243        C251   1.266   1_554  A
O244        C251   1.262       .  A
C245        O246   1.266       .  A
C245       O1296   1.253       .  A
C245        C476   1.481       .  S
C247        O249   1.258       .  A
C247        O253   1.265       .  A
C247        C519   1.470       .  S
O249      In1285   2.201       .  S
C251        C456   1.462       .  S
O252      In1285   2.207       .  S
O252       C1289   1.253       .  A
O253      In1285   2.262       .  S
In254       O256   2.241       .  S
In254       O257   2.238       .  S
In254       O265   2.241       .  S
In254       O259   2.276       .  S
In254       O261   2.302       .  S
In254       O263   2.253       .  S
In254      O1306   2.208       .  S
In254      O1310   2.271       .  S
C255        O261   1.267       .  A
C255        O263   1.255       .  A
C255        C709   1.509       .  S
O256        C264   1.261       .  A
O257        C264   1.259       .  A
C258        O265   1.258       .  A
C258        O259   1.265       .  A
C258        C479   1.488       .  S
C260        O262   1.258       .  A
C260        O266   1.265       .  A
C260        C496   1.473       .  S
O262      In1298   2.208   1_554  S
C264        C449   1.470       .  S
O266      In1298   2.270   1_554  S
In267       O269   2.245       .  S
In267       O270   2.214       .  S
In267       O278   2.217       .  S
In267       O272   2.308       .  S
In267       O274   2.298       .  S
In267       O275   2.207       .  S
In267       O276   2.243       .  S
In267       O279   2.279       .  S
C268        O274   1.266       .  A
C268        O276   1.257       .  A
C268        C426   1.498       .  S
O269        C277   1.261       .  A
O270        C277   1.259       .  A
C271        O278   1.255       .  A
C271        O272   1.270       .  A
C271        C436   1.487       .  S
C273        O275   1.257       .  A
C273        O279   1.268       .  A
C273        C416   1.484       .  S
C277        C509   1.474       .  S
In280       O282   2.252       .  S
In280       O283   2.220       .  S
In280       O291   2.192       .  S
In280       O285   2.298       .  S
In280       O287   2.285       .  S
In280       O288   2.186       .  S
In280       O289   2.226       .  S
In280       O292   2.263       .  S
C281        O287   1.270       .  A
C281        O289   1.256       .  A
C281        C769   1.488       .  S
O282        C290   1.259       .  A
O283        C290   1.260       .  A
C284        O291   1.258       .  A
C284        O285   1.274       .  A
C284        C439   1.494       .  S
C286        O288   1.259       .  A
C286        O292   1.269       .  A
C286        C406   1.466       .  S
C290        C489   1.486       .  S
In293       O298   2.264       .  S
In293       O300   2.286   1_556  S
In293       O302   2.191       .  S
In293       O305   2.238   1_556  S
In293      O1339   2.263       .  S
In293      O1340   2.200       .  S
In293      O1348   2.191       .  S
In293      O1345   2.199       .  S
C294        O300   1.272       .  A
C294        O302   1.256   1_554  A
C294        C386   1.478       .  S
O295      In1337   2.263       .  S
O295        C303   1.270       .  A
O296      In1337   2.199       .  S
O296        C303   1.261       .  A
C297        O298   1.268       .  A
C297       O1348   1.254       .  A
C297        C396   1.474       .  S
C299        O305   1.260   1_556  A
C299       O1345   1.261       .  A
C299        C459   1.462       .  S
O301      In1337   2.197       .  S
O301       C1343   1.260       .  A
C303        C419   1.477       .  S
O304      In1337   2.191       .  S
O304       C1341   1.254       .  A
In306       O317   2.215       .  S
In306       O311   2.258       .  S
In306       O313   2.247       .  S
In306       O314   2.263       .  S
In306       O315   2.241       .  S
In306       O318   2.232       .  S
In306      O1352   2.263       .  S
In306      O1353   2.218       .  S
C307        O313   1.260       .  A
C307        O315   1.261       .  A
C307        C756   1.477       .  S
O308      In1350   2.263   1_554  S
O308        C316   1.261       .  A
O309      In1350   2.218   1_554  S
O309        C316   1.257       .  A
C310        O317   1.258       .  A
C310        O311   1.262       .  A
C310        C399   1.463       .  S
C312        O314   1.261       .  A
C312        O318   1.256       .  A
C312        C446   1.469       .  S
C316        C409   1.467       .  S
C319        C366   1.632       .  S
C319        C379   1.622       .  S
C319        C549   1.617       .  S
C319        C579   1.611       .  S
C320        C359   1.657       .  S
C320        C376   1.624       .  S
C320        C859   1.602       .  S
C320        C909   1.597       .  S
C321        C336   1.630       .  S
C321        C346   1.625       .  S
C321        C389   1.610       .  S
C321        C429   1.609       .  S
C322        C349   1.640       .  S
C322        C356   1.650       .  S
C322        C956   1.605       .  S
C322       C1029   1.615       .  S
C323        C329   1.619       .  S
C323        C339   1.651       .  S
C323        C469   1.619       .  S
C323        C529   1.602       .  S
C324        C326   1.589       .  S
C324        C369   1.631       .  S
C324        C619   1.507       .  S
C324        C669   1.525       .  S
C325        C326   1.429       .  A
C325        C330   1.432       .  A
C325       Br332   1.942       .  S
C326        C327   1.423       .  A
C327        C328   1.389       .  A
C327       Br334   1.952       .  S
C328        C329   1.444       .  A
C328       Br333   1.946       .  S
C329        C330   1.436       .  A
C330       Br331   1.935       .  S
C335        C336   1.434       .  A
C335        C340   1.441       .  A
C335       Br342   1.947       .  S
C336        C337   1.441       .  A
C337        C338   1.438       .  A
C337       Br344   1.954       .  S
C338        C339   1.460       .  A
C338       Br343   1.961       .  S
C339        C340   1.444       .  A
C340       Br341   1.929       .  S
C345        C346   1.432       .  A
C345        C350   1.436       .  A
C345       Br352   1.948       .  S
C346        C347   1.431       .  A
C347        C348   1.433       .  A
C347       Br354   1.969       .  S
C348        C349   1.463       .  A
C348       Br353   1.962       .  S
C349        C350   1.448       .  A
C350       Br351   1.924       .  S
C355        C356   1.446       .  A
C355        C360   1.439       .  A
C355       Br362   1.936       .  S
C356        C357   1.461       .  A
C357        C358   1.449       .  A
C357       Br364   1.965       .  S
C358        C359   1.451       .  A
C358       Br363   1.960       .  S
C359        C360   1.431       .  A
C360       Br361   1.917       .  S
C365        C366   1.445       .  A
C365        C370   1.428       .  A
C365       Br372   1.912       .  S
C366        C367   1.432       .  A
C367        C368   1.415       .  A
C367       Br374   1.924       .  S
C368        C369   1.450       .  A
C368       Br373   1.945       .  S
C369        C370   1.423       .  A
C370       Br371   1.934       .  S
C375        C376   1.463       .  A
C375        C380   1.441       .  A
C375       Br382   1.973       .  S
C376        C377   1.427       .  A
C377        C378   1.410       .  A
C377       Br384   1.907       .  S
C378        C379   1.422       .  A
C378       Br383   1.932       .  S
C379        C380   1.450       .  A
C380       Br381   1.963       .  S
C385        C386   1.415       .  A
C385        C390   1.407       .  A
C385       Br392   1.927       .  S
C386        C387   1.404       .  A
C387        C388   1.412       .  A
C387       Br394   1.928       .  S
C388        C389   1.415       .  A
C388       Br393   1.913       .  S
C389        C390   1.413       .  A
C390       Br391   1.923       .  S
C395        C396   1.410       .  A
C395       C1444   1.410   1_655  A
C395       Br402   1.926   1_556  S
C396       C1441   1.418       .  A
C397        C398   1.398   1_655  A
C397       C1440   1.418       .  A
C397       Br404   1.937       .  S
C398        C399   1.402       .  A
C398       Br403   1.935       .  S
C399        C400   1.406       .  A
C400       C1439   1.410   1_455  A
C400       Br401   1.923       .  S
C405        C406   1.408       .  A
C405        C410   1.409       .  A
C405       Br412   1.925       .  S
C406        C407   1.407       .  A
C407        C408   1.402       .  A
C407       Br414   1.930       .  S
C408        C409   1.408       .  A
C408       Br413   1.928       .  S
C409        C410   1.407       .  A
C410       Br411   1.926       .  S
C415        C416   1.413       .  A
C415        C420   1.407       .  A
C415       Br422   1.931       .  S
C416        C417   1.413       .  A
C417        C418   1.412       .  A
C417       Br424   1.927       .  S
C418        C419   1.410       .  A
C418       Br423   1.932       .  S
C419        C420   1.408       .  A
C420       Br421   1.932       .  S
C425        C426   1.399       .  A
C425        C430   1.405       .  A
C425       Br432   1.927       .  S
C426        C427   1.406       .  A
C427        C428   1.426       .  A
C427       Br434   1.937       .  S
C428        C429   1.455       .  A
C428       Br433   1.938       .  S
C429        C430   1.431       .  A
C430       Br431   1.926       .  S
C435        C436   1.412       .  A
C435        C440   1.421   1_655  A
C435       Br442   1.923       .  S
C436        C437   1.407       .  A
C437        C438   1.401   1_655  A
C437       Br444   1.930       .  S
C438        C439   1.416       .  A
C438       Br443   1.937       .  S
C439        C440   1.416       .  A
C440       Br441   1.926       .  S
C445        C446   1.403       .  A
C445        C450   1.397       .  A
C445       Br452   1.924       .  S
C446        C447   1.412       .  A
C447        C448   1.413       .  A
C447       Br454   1.925       .  S
C448        C449   1.407       .  A
C448       Br453   1.924       .  S
C449        C450   1.401       .  A
C450       Br451   1.915       .  S
C455        C456   1.407   1_554  A
C455        C460   1.412   1_554  A
C455       Br462   1.928       .  S
C456        C457   1.403       .  A
C457        C458   1.389       .  A
C457       Br464   1.919       .  S
C458        C459   1.408       .  A
C458       Br463   1.943       .  S
C459        C460   1.415       .  A
C460       Br461   1.929   1_556  S
C465        C466   1.401       .  A
C465        C470   1.404       .  A
C465      Br1516   1.924   1_554  S
C466        C467   1.394       .  A
C467        C468   1.417       .  A
C467       Br474   1.937       .  S
C468        C469   1.469       .  A
C468       Br473   1.934       .  S
C469        C470   1.431       .  A
C470       Br471   1.894       .  S
Br472      C1509   1.924       .  S
C475        C480   1.407       .  A
C475       C1520   1.414       .  A
C475       Br482   1.935       .  S
C476        C477   1.405       .  A
C476       C1519   1.414       .  A
C477        C478   1.412       .  A
C477       Br484   1.926   1_556  S
C478       C1523   1.414   1_655  A
C478       Br483   1.918   1_656  S
C479        C480   1.411   1_455  A
C479       C1522   1.414   1_455  A
C480       Br481   1.931   1_655  S
C485        C486   1.415       .  A
C485        C490   1.408       .  A
C485       Br492   1.932       .  S
C486        C487   1.414       .  A
C487        C488   1.403       .  A
C487       Br494   1.937       .  S
C488        C489   1.413       .  A
C488       Br493   1.937       .  S
C489        C490   1.415       .  A
C490       Br491   1.932       .  S
C495        C496   1.410       .  A
C495        C500   1.406       .  A
C495       Br502   1.918       .  S
C496        C497   1.407       .  A
C497        C498   1.404       .  A
C497       Br504   1.925       .  S
C498        C499   1.406       .  A
C498       Br503   1.930       .  S
C499        C500   1.406       .  A
C500       Br501   1.932       .  S
C505        C506   1.411       .  A
C505        C510   1.406       .  A
C505       Br512   1.921       .  S
C506        C507   1.408       .  A
C507        C508   1.401       .  A
C507       Br514   1.932       .  S
C508        C509   1.411       .  A
C508       Br513   1.933       .  S
C509        C510   1.410       .  A
C510       Br511   1.926       .  S
C515        C516   1.411       .  A
C515        C520   1.409       .  A
C515       Br522   1.926       .  S
C516        C517   1.406       .  A
C517        C518   1.399       .  A
C517       Br524   1.935       .  S
C518        C519   1.408       .  A
C518       Br523   1.923       .  S
C519        C520   1.408       .  A
C520       Br521   1.928       .  S
C525        C526   1.401       .  A
C525        C530   1.422       .  A
C525       Br532   1.939       .  S
C526        C527   1.389       .  A
C527        C528   1.394       .  A
C527       Br534   1.929       .  S
C528        C529   1.443       .  A
C528       Br533   1.930       .  S
C529        C530   1.451       .  A
C530       Br531   1.916       .  S
C535        C536   1.411       .  A
C535        C540   1.405       .  A
C535       Br542   1.932       .  S
C536        C537   1.407       .  A
C537        C538   1.405       .  A
C537       Br544   1.935       .  S
C538        C539   1.417       .  A
C538       Br543   1.935   1_655  S
C539        C540   1.412       .  A
C540       Br541   1.934   1_655  S
C545        C546   1.422       .  A
C545        C550   1.426       .  A
C545       Br552   1.944       .  S
C546        C547   1.414       .  A
C547        C548   1.408       .  A
C547       Br554   1.920       .  S
C548        C549   1.409       .  A
C548       Br553   1.925       .  S
C549        C550   1.429       .  A
C550       Br551   1.928       .  S
C555        C556   1.410       .  A
C555        C560   1.410       .  A
C555       Br562   1.931       .  S
C556        C557   1.405       .  A
C557        C558   1.408       .  A
C557       Br564   1.930       .  S
C558        C559   1.418       .  A
C558       Br563   1.934   1_565  S
C559        C560   1.412       .  A
C560       Br561   1.930   1_565  S
C565        C566   1.414       .  A
C565        C570   1.407       .  A
C565       Br572   1.939       .  S
C566        C567   1.414       .  A
C567        C568   1.414       .  A
C567       Br574   1.930       .  S
C568        C569   1.413       .  A
C568       Br573   1.929       .  S
C569        C570   1.417       .  A
C570       Br571   1.939       .  S
C575        C576   1.415       .  A
C575        C580   1.418       .  A
C575       Br582   1.936       .  S
C576        C577   1.406       .  A
C577        C578   1.418       .  A
C577      Br1628   1.940   1_554  S
C578        C579   1.445       .  A
C578       Br583   1.926       .  S
C579        C580   1.431       .  A
C580       Br581   1.925       .  S
Br584      C1621   1.940       .  S
C585        C586   1.413       .  A
C585        C590   1.412       .  A
C585       Br592   1.928       .  S
C586       C1213   1.477       .  S
C586        C587   1.413       .  A
C587        C588   1.400       .  A
C587      Br1638   1.938       .  S
C588        C589   1.411       .  A
C588       Br593   1.941       .  S
C589        C590   1.408       .  A
C590       Br591   1.928       .  S
Br594      C1631   1.937       .  S
C595        C596   1.413       .  A
C595        C600   1.413       .  A
C595       Br602   1.929   1_565  S
C596        C597   1.406       .  A
C597        C598   1.406       .  A
C597      Br1648   1.931       .  S
C598        C599   1.412       .  A
C598       Br603   1.931       .  S
C599        C600   1.407       .  A
C600       Br601   1.927       .  S
Br604      C1641   1.931       .  S
C605        C606   1.403       .  A
C605        C610   1.399       .  A
C605       Br612   1.924   1_545  S
C606        C607   1.412       .  A
C607        C608   1.414       .  A
C607       Br614   1.927       .  S
C608        C609   1.410       .  A
C608       Br613   1.929       .  S
C609        C610   1.407       .  A
C610       Br611   1.927       .  S
C615        C616   1.622       .  A
C615        C620   1.603       .  A
C615       Br622   1.911       .  S
C616        C617   1.611       .  A
C617        C618   1.618       .  A
C617       Br624   1.919       .  S
C618        C619   1.665       .  A
C618       Br623   1.913       .  S
C619        C620   1.624       .  A
C620       Br621   1.913       .  S
C625        C626   1.404       .  A
C625        C630   1.410       .  A
C625       Br632   1.924       .  S
C626        C627   1.401       .  A
C627        C628   1.393       .  A
C627       Br634   1.923       .  S
C628        C629   1.409       .  A
C628       Br633   1.939       .  S
C629        C630   1.411       .  A
C630       Br631   1.925       .  S
C635        C636   1.408   1_565  A
C635        C640   1.408       .  A
C635       Br642   1.934   1_565  S
C636        C637   1.411       .  A
C637        C638   1.408   1_545  A
C637       Br644   1.926       .  S
C638        C639   1.406       .  A
C638       Br643   1.928       .  S
C639        C640   1.415       .  A
C640       Br641   1.931       .  S
C645        C646   1.408       .  A
C645        C650   1.391       .  A
C645       Br652   1.937       .  S
C646       C1691   1.411       .  A
C647        C648   1.407       .  A
C647       C1690   1.411       .  A
C647       Br654   1.927       .  S
C648        C649   1.403       .  A
C648       Br653   1.924       .  S
C649       C1694   1.404       .  A
C650       C1693   1.404       .  A
C650       Br651   1.929       .  S
C655        C656   1.417       .  A
C655        C660   1.421       .  A
C655       Br662   1.928       .  S
C656        C657   1.413       .  A
C657        C658   1.414       .  A
C657       Br664   1.933       .  S
C658        C659   1.416       .  A
C658       Br663   1.933       .  S
C659        C660   1.416       .  A
C660       Br661   1.930       .  S
C665        C666   1.451       .  A
C665        C670   1.486       .  A
C665       Br672   1.941       .  S
C666       C1711   1.407       .  A
C667       C1710   1.406       .  A
C667       C1712   1.385       .  A
C667       Br674   1.945       .  S
C668        C669   1.414       .  A
C668       C1711   1.386       .  A
C668      Br1717   1.942       .  S
C669        C670   1.475       .  A
C670       Br671   3.699       .  S
Br673      C1712   1.942       .  S
C675        C676   1.401       .  A
C675        C680   1.400       .  A
C675       Br682   1.924       .  S
C676        C677   1.403       .  A
C677        C678   1.409       .  A
C677       Br684   1.927       .  S
C678        C679   1.415       .  A
C678       Br683   1.918       .  S
C679        C680   1.410       .  A
C680       Br681   1.928       .  S
C685        C686   1.409       .  A
C685        C690   1.403       .  A
C685       Br692   1.930       .  S
C686        C687   1.409       .  A
C687        C688   1.409       .  A
C687       Br694   1.931       .  S
C688        C689   1.416       .  A
C688      Br1737   1.933       .  S
C689        C690   1.410       .  A
C690       Br691   1.934       .  S
Br693      C1732   1.933       .  S
C695        C696   1.416       .  A
C695        C700   1.406   1_565  A
C695      Br1746   1.933       .  S
C696        C697   1.411       .  A
C697        C698   1.407   1_565  A
C697       Br704   1.932       .  S
C698        C699   1.409       .  A
C698       Br703   1.931       .  S
C699        C700   1.404       .  A
C700      Br1745   1.932       .  S
Br701      C1744   1.932   1_554  S
Br702      C1739   1.933   1_554  S
C705        C706   1.445       .  A
C705        C710   1.432       .  A
C705       Br712   1.911       .  S
C706        C707   1.443       .  A
C707        C708   1.412       .  A
C707       Br714   1.914       .  S
C708        C709   1.400       .  A
C708       Br713   1.936       .  S
C709        C710   1.413       .  A
C710       Br711   1.938       .  S
C715        C716   1.405       .  A
C715        C720   1.394       .  A
C715       Br722   1.927       .  S
C716        C717   1.412       .  A
C717        C718   1.413       .  A
C717       Br724   1.934       .  S
C718        C719   1.416       .  A
C718       Br723   1.922       .  S
C719        C720   1.413       .  A
C720       Br721   1.901       .  S
C725        C726   1.446       .  A
C725        C730   1.409       .  A
C725       Br732   1.928       .  S
C726        C727   1.444       .  A
C727        C728   1.418       .  A
C727       Br734   1.928       .  S
C728        C729   1.441       .  A
C728       Br733   1.962       .  S
C729        C730   1.405       .  A
C730       Br731   1.931       .  S
C735        C736   1.402       .  A
C735        C740   1.390       .  A
C735       Br742   1.912       .  S
C736        C737   1.435       .  A
C737        C738   1.433       .  A
C737       Br744   1.917       .  S
C738        C739   1.418       .  A
C738       Br743   1.929       .  S
C739        C740   1.407       .  A
C740       Br741   1.920       .  S
C745        C746   1.451       .  A
C745        C750   1.415       .  A
C745       Br752   1.917       .  S
C746        C747   1.440       .  A
C747        C748   1.417       .  A
C747       Br754   1.905       .  S
C748        C749   1.393       .  A
C748       Br753   1.931       .  S
C749        C750   1.397       .  A
C750       Br751   1.935       .  S
C755        C756   1.393       .  A
C755        C760   1.413       .  A
C755      Br1806   1.937       .  S
C756        C757   1.398       .  A
C757        C758   1.413       .  A
C757       Br764   1.950       .  S
C758        C759   1.451       .  A
C758       Br763   1.936       .  S
C759        C760   1.442       .  A
C760      Br1805   1.910       .  S
Br761      C1804   1.910       .  S
Br762      C1799   1.937       .  S
C765        C766   1.397       .  A
C765        C770   1.401       .  A
C765       Br772   1.915       .  S
C766        C767   1.439       .  A
C767        C768   1.429       .  A
C767       Br774   1.919       .  S
C768        C769   1.414       .  A
C768       Br773   1.930       .  S
C769        C770   1.404       .  A
C770       Br771   1.909       .  S
C775        C776   1.439       .  A
C775        C780   1.444       .  A
C775       Br782   1.917       .  S
C776        C777   1.441       .  A
C777        C778   1.416       .  A
C777       Br784   1.934       .  S
C778        C779   1.425       .  A
C778       Br783   1.915       .  S
C779        C780   1.447       .  A
C780       Br781   1.947       .  S
C785        C786   1.421       .  A
C785        C790   1.421       .  A
C785       Br792   1.933       .  S
C786        C787   1.434       .  A
C787        C788   1.439       .  A
C787       Br794   1.948       .  S
C788        C789   1.457       .  A
C788       Br793   1.954       .  S
C789        C790   1.449       .  A
C790       Br791   1.937       .  S
C795        C796   1.430       .  A
C795        C800   1.442       .  A
C795       Br802   1.950       .  S
C796        C797   1.422       .  A
C797        C798   1.407       .  A
C797       Br804   1.935       .  S
C798        C799   1.456       .  A
C798       Br803   1.936       .  S
C799        C800   1.445       .  A
C800       Br801   1.907       .  S
C805        C806   1.450       .  A
C805        C810   1.411       .  A
C805       Br812   1.908       .  S
C806        C807   1.471       .  A
C807        C808   1.416       .  A
C807       Br814   1.945       .  S
C808        C809   1.395       .  A
C808       Br813   1.937       .  S
C809        C810   1.399       .  A
C810       Br811   1.942       .  S
C815        C816   1.404       .  A
C815        C820   1.422       .  A
C815       Br822   1.935       .  S
C816        C817   1.389       .  A
C817        C818   1.396       .  A
C817       Br824   1.935       .  S
C818        C819   1.447       .  A
C818       Br823   1.936       .  S
C819        C820   1.443       .  A
C820       Br821   1.914       .  S
C825        C826   1.469       .  A
C825        C830   1.425       .  A
C825       Br832   1.945       .  S
C826        C827   1.429       .  A
C827        C828   1.445       .  A
C827       Br834   1.938       .  S
C828        C829   1.442       .  A
C828       Br833   1.923       .  S
C829        C830   1.412       .  A
C830       Br831   1.931       .  S
C835        C836   1.440       .  A
C835        C840   1.423       .  A
C835       Br842   1.929       .  S
C836        C837   1.443       .  A
C837        C838   1.413       .  A
C837       Br844   1.940       .  S
C838        C839   1.438       .  A
C838       Br843   1.921       .  S
C839        C840   1.446       .  A
C840       Br841   1.938       .  S
C845        C846   1.411       .  A
C845        C850   1.425       .  A
C845       Br852   1.928       .  S
C846        C847   1.398       .  A
C847        C848   1.399       .  A
C847       Br854   1.928       .  S
C848        C849   1.422       .  A
C848       Br853   1.912       .  S
C849        C850   1.445       .  A
C850       Br851   1.952       .  S
C855        C856   1.433       .  A
C855        C860   1.433       .  A
C855       Br862   1.932       .  S
C856        C857   1.411       .  A
C857        C858   1.391       .  A
C857       Br864   1.922       .  S
C858        C859   1.412       .  A
C858       Br863   1.947       .  S
C859        C860   1.431       .  A
C860       Br861   1.916       .  S
C865        C866   1.409       .  A
C865        C870   1.413       .  A
C865       Br872   1.930       .  S
C866        C867   1.415       .  A
C867        C868   1.409       .  A
C867       Br874   1.932       .  S
C868        C869   1.412       .  A
C868       Br873   1.934       .  S
C869        C870   1.417       .  A
C870       Br871   1.929       .  S
C875        C876   1.411       .  A
C875        C880   1.405       .  A
C875       Br882   1.931       .  S
C876        C877   1.414       .  A
C877        C878   1.409       .  A
C877      Br1928   1.933       .  S
C878        C879   1.411       .  A
C878       Br883   1.930       .  S
C879        C880   1.409       .  A
C880       Br881   1.932       .  S
Br884      C1921   1.933       .  S
C885        C886   1.409       .  A
C885        C890   1.398       .  A
C885       Br892   1.925       .  S
C886        C887   1.426       .  A
C887        C888   1.426       .  A
C887       Br894   1.946       .  S
C888        C889   1.436       .  A
C888       Br893   1.923       .  S
C889        C890   1.424       .  A
C890       Br891   1.930       .  S
C895        C896   1.409       .  A
C895        C900   1.403       .  A
C895       Br902   1.930       .  S
C896        C897   1.412       .  A
C897        C898   1.410       .  A
C897       Br904   1.929       .  S
C898        C899   1.407       .  A
C898       Br903   1.925       .  S
C899        C900   1.406       .  A
C900       Br901   1.929       .  S
C905        C906   1.407       .  A
C905        C910   1.389       .  A
C905      Br1956   1.923       .  S
C906        C907   1.415       .  A
C907        C908   1.429       .  A
C907       Br914   1.936   1_554  S
C908        C909   1.448       .  A
C908       Br913   1.932       .  S
C909        C910   1.399       .  A
C910      Br1955   1.920       .  S
Br911      C1954   1.920       .  S
Br912      C1949   1.923       .  S
C915        C916   1.410       .  A
C915        C920   1.415       .  A
C915       Br922   1.925       .  S
C916        C917   1.409       .  A
C917        C918   1.396       .  A
C917       Br924   1.932       .  S
C918        C919   1.414       .  A
C918       Br923   1.941       .  S
C919        C920   1.411       .  A
C920       Br921   1.926       .  S
C925        C926   1.409       .  A
C925        C930   1.399       .  A
C925       Br932   1.928       .  S
C926        C927   1.411       .  A
C927        C928   1.405       .  A
C927       Br934   1.923       .  S
C928        C929   1.403       .  A
C928       Br933   1.918       .  S
C929        C930   1.403       .  A
C930       Br931   1.928       .  S
C935        C936   1.446       .  A
C935        C940   1.420       .  A
C935       Br942   1.914       .  S
C936        C937   1.450       .  A
C937        C938   1.399       .  A
C937       Br944   1.919       .  S
C938        C939   1.393       .  A
C938       Br943   1.945       .  S
C939        C940   1.402       .  A
C940       Br941   1.938       .  S
C945        C946   1.412       .  A
C945        C950   1.401       .  A
C945       Br952   1.938       .  S
C946        C947   1.410       .  A
C947        C948   1.406       .  A
C947       Br954   1.933       .  S
C948        C949   1.411       .  A
C948       Br953   1.932       .  S
C949        C950   1.413       .  A
C950       Br951   1.939       .  S
C955        C956   1.413       .  A
C955        C960   1.384       .  A
C955       Br962   1.936       .  S
C956        C957   1.443       .  A
C957        C958   1.430       .  A
C957       Br964   1.919       .  S
C958        C959   1.431       .  A
C958       Br963   1.940       .  S
C959        C960   1.411       .  A
C960       Br961   1.924       .  S
C965        C966   1.413       .  A
C965        C970   1.406       .  A
C965       Br972   1.936       .  S
C966        C967   1.411       .  A
C967        C968   1.406       .  A
C967       Br974   1.931       .  S
C968        C969   1.412       .  A
C968       Br973   1.931       .  S
C969        C970   1.412       .  A
C970       Br971   1.933       .  S
C975        C976   1.407       .  A
C975        C980   1.413       .  A
C975       Br982   1.920       .  S
C976        C977   1.391       .  A
C977        C978   1.392       .  A
C977       Br984   1.907       .  S
C978        C979   1.401       .  A
C978       Br983   1.903       .  S
C979        C980   1.409       .  A
C980       Br981   1.916       .  S
C985        C986   1.413       .  A
C985        C990   1.401       .  A
C985       Br992   1.937       .  S
C986        C987   1.409       .  A
C987        C988   1.405       .  A
C987       Br994   1.931       .  S
C988        C989   1.409       .  A
C988       Br993   1.931       .  S
C989        C990   1.410       .  A
C990      Br2035   1.938       .  S
Br991      C2034   1.938       .  S
C995        C996   1.394       .  A
C995       C1000   1.430       .  A
C995      Br1002   1.930       .  S
C996        C997   1.390       .  A
C997        C998   1.417       .  A
C997      Br1004   1.947       .  S
C998        C999   1.458       .  A
C998      Br1003   1.923       .  S
C999       C1000   1.444       .  A
C1000     Br1001   1.902       .  S
C1005      C1010   1.402       .  A
C1005      C2050   1.412       .  A
C1005     Br1012   1.939       .  S
C1006      C1007   1.410       .  A
C1006      C2049   1.412       .  A
C1007      C1008   1.408       .  A
C1007     Br1014   1.935   1_556  S
C1008      C1009   1.418       .  A
C1008     Br1013   1.934   1_556  S
C1009      C2054   1.413       .  A
C1010      C2053   1.413       .  A
C1010     Br1011   1.938       .  S
C1015      C1016   1.411       .  A
C1015      C1020   1.410       .  A
C1015     Br1022   1.928       .  S
C1016      C1017   1.408       .  A
C1017      C1018   1.402       .  A
C1017     Br1024   1.930       .  S
C1018      C1019   1.407       .  A
C1018     Br1023   1.931       .  S
C1019      C1020   1.409       .  A
C1020     Br1021   1.927       .  S
C1025      C1026   1.413       .  A
C1025      C1030   1.399       .  A
C1025     Br1032   1.928       .  S
C1026      C1027   1.423       .  A
C1027      C1028   1.433       .  A
C1027     Br1034   1.941   1_554  S
C1028      C1029   1.441       .  A
C1028     Br1033   1.911       .  S
C1029      C1030   1.413       .  A
C1030     Br1031   1.924       .  S
C1035      C1036   1.416       .  A
C1035      C1040   1.408       .  A
C1035     Br1042   1.933       .  S
C1036      C1037   1.410       .  A
C1037      C1038   1.415       .  A
C1037     Br2088   1.928       .  S
C1038      C1039   1.413       .  A
C1038     Br2087   1.928       .  S
C1039      C1040   1.405       .  A
C1040     Br1041   1.931       .  S
Br1043     C2082   1.928   1_554  S
Br1044     C2081   1.928   1_554  S
In1045     O1048   2.203       .  S
In1045     O1056   2.213       .  S
In1045     O1053   2.192       .  S
In1045     O1054   2.218       .  S
In1045     O1057   2.273       .  S
C1046      O1052   1.269       .  A
C1046      C2070   1.502       .  S
O1047      C1055   1.264       .  A
C1049      O1056   1.255       .  A
C1049      C2080   1.487       .  S
C1051      O1053   1.258       .  A
C1051      O1057   1.266       .  A
C1051      C2060   1.474       .  S
C1055      C2050   1.472       .  S
In1058     O1060   2.265       .  S
In1058     O1061   2.205       .  S
In1058     O1069   2.191       .  S
In1058     O1063   2.307       .  S
In1058     O1065   2.297       .  S
In1058     O1067   2.270       .  S
In1058     O1070   2.223       .  S
C1059      O1065   1.267       .  A
C1059      O1067   1.254       .  A
C1059      C2040   1.495       .  S
O1060      C1068   1.264       .  A
O1061      C1068   1.259       .  A
C1062      O1069   1.251       .  A
C1062      O1063   1.272       .  A
C1062      C2083   1.477       .  S
C1064      O1066   1.264       .  A
C1064      C2033   1.465       .  S
C1068      C2020   1.463       .  S
In1071     O1073   2.272       .  S
In1071     O1074   2.204       .  S
In1071     O1082   2.203       .  S
In1071     O1076   2.258       .  S
In1071     O1078   2.254       .  S
In1071     O1079   2.220       .  S
In1071     O1080   2.204       .  S
In1071     O1083   2.225       .  S
C1072      O1078   1.266       .  A
C1072      O1080   1.254       .  A
C1072      C2003   1.488       .  S
O1073      C1081   1.263       .  A
O1074      C1081   1.256       .  A
C1075      O1082   1.258       .  A
C1075      O1076   1.264       .  A
C1075      C2013   1.477       .  S
C1077      O1079   1.262       .  A
C1077      O1083   1.261       .  A
C1077      C1990   1.469       .  S
C1081      C2063   1.471       .  S
In1084     O1086   2.227       .  S
In1084     O1087   2.220       .  S
In1084     O1095   2.203       .  S
In1084     O1089   2.255       .  S
In1084     O1091   2.226       .  S
In1084     O1092   2.194       .  S
In1084     O1093   2.241       .  S
In1084     O1096   2.251       .  S
C1085      O1091   1.262       .  A
C1085      O1093   1.257       .  A
C1085      C1983   1.473       .  S
O1086      C1094   1.259       .  A
O1087      C1094   1.258       .  A
C1088      O1095   1.258       .  A
C1088      O1089   1.265       .  A
C1088      C2010   1.477       .  S
C1090      O1092   1.261       .  A
C1090      O1096   1.262       .  A
C1090      C1970   1.468       .  S
C1094      C2030   1.466       .  S
In1097     O1099   2.263       .  S
In1097     O1100   2.195       .  S
In1097     O1108   2.202       .  S
In1097     O1105   2.224       .  S
In1097     O1106   2.209       .  S
C1098      O1104   1.268       .  A
C1098      C1950   1.480       .  S
O1099      C1107   1.267       .  A
O1100      C1107   1.260       .  A
C1101      O1108   1.257       .  A
C1101      C1960   1.474       .  S
C1103      O1109   1.258       .  A
C1103      C2053   1.480       .  S
C1107      C1940   1.475       .  S
In1110     O1112   2.229   1_556  S
In1110     O1121   2.175       .  S
In1110     O1115   2.256       .  S
In1110     O1117   2.264       .  S
In1110     O1118   2.224       .  S
In1110     O1119   2.180       .  S
In1110     O1122   2.249       .  S
C1111      O1117   1.274       .  A
C1111      O1119   1.259       .  A
C1111      C1930   1.499       .  S
O1113      C1120   1.269       .  A
C1114      O1121   1.259       .  A
C1114      O1115   1.274       .  A
C1114      C1963   1.477       .  S
C1116      O1118   1.268       .  A
C1116      O1122   1.264       .  A
C1116      C2023   1.471       .  S
C1120      C1920   1.479       .  S
In1123     O1125   2.233       .  S
In1123     O1126   2.212       .  S
In1123     O1134   2.213       .  S
In1123     O1128   2.292       .  S
In1123     O1130   2.276       .  S
In1123     O1131   2.197       .  S
In1123     O1132   2.232       .  S
In1123     O1135   2.277       .  S
C1124      O1130   1.268       .  A
C1124      O1132   1.256       .  A
C1124      C1900   1.492       .  S
O1125      C1133   1.261       .  A
O1126      C1133   1.260       .  A
C1127      O1134   1.255       .  A
C1127      O1128   1.268       .  A
C1127      C1910   1.488       .  S
C1129      O1131   1.258       .  A
C1129      O1135   1.266       .  A
C1129      C1943   1.472       .  S
C1133      C1993   1.470       .  S
In1136     O1138   2.265       .  S
In1136     O1139   2.197       .  S
In1136     O1147   2.207       .  S
In1136     O1141   2.270       .  S
In1136     O1143   2.275       .  S
In1136     O1144   2.203       .  S
In1136     O1145   2.230       .  S
In1136     O1148   2.252       .  S
C1137      O1143   1.270       .  A
C1137      O1145   1.259       .  A
C1137      C1890   1.484       .  S
O1138      C1146   1.262       .  A
O1139      C1146   1.263       .  A
C1140      O1147   1.258       .  A
C1140      O1141   1.272       .  A
C1140      C1913   1.489       .  S
C1142      O1144   1.262       .  A
C1142      O1148   1.267       .  A
C1142      C1923   1.477       .  S
C1146      C1973   1.470       .  S
C1149      C1850   1.632       .  S
C1149      C1863   1.591       .  S
C1149      C1870   1.644       .  S
C1149      C1880   1.633       .  S
C1150      C1840   1.615       .  S
C1150      C1883   1.640       .  S
C1150      C1980   1.613       .  S
C1150      C2043   1.631       .  S
C1151      C1803   1.621       .  S
C1151      C1810   1.625       .  S
C1151      C1820   1.639       .  S
C1151      C1830   1.624       .  S
C1152      C1780   1.602       .  S
C1152      C1790   1.641       .  S
C1152      C1833   1.635       .  S
C1152      C1873   1.621       .  S
C1153      C1750   1.637       .  S
C1153      C1763   1.598       .  S
C1153      C1770   1.625       .  S
C1153      C1823   1.623       .  S
C1154      C1773   1.620       .  S
C1154      C1843   1.672       .  S
C1154      C1893   1.591       .  S
C1154      C1933   1.610       .  S
In1155     O1157   2.265       .  S
In1155     O1158   2.217       .  S
In1155     O1166   2.216       .  S
In1155     O1160   2.245       .  S
In1155     O1162   2.262       .  S
In1155     O1164   2.197       .  S
In1155     O1167   2.231       .  S
C1156      O1162   1.269       .  A
C1156      O1164   1.258       .  A
C1156      C1740   1.477       .  S
O1157      C1165   1.262       .  A
O1158      C1165   1.264       .  A
C1159      O1166   1.260       .  A
C1159      O1160   1.267       .  A
C1159      C1860   1.472       .  S
C1161      O1163   1.264       .  A
C1161      C1733   1.478       .  S
C1165      C1723   1.476       .  S
In1168     O1170   2.310       .  S
In1168     O1171   2.237       .  S
In1168     O1179   2.192       .  S
In1168     O1176   2.181       .  S
In1168     O1177   2.217       .  S
C1169      O1175   1.266       .  A
C1169      C1710   1.515       .  S
O1170      C1178   1.269       .  A
O1171      C1178   1.256       .  A
C1172      O1179   1.254       .  A
C1172      C1743   1.464       .  S
C1174      O1176   1.262       .  A
C1174      C1690   1.457   1_556  S
C1178      C1703   1.505       .  S
In1181     O1183   2.252       .  S
In1181     O1184   2.206       .  S
In1181     O1192   2.238       .  S
In1181     O1186   2.266       .  S
In1181     O1188   2.285       .  S
In1181     O1189   2.210       .  S
In1181     O1190   2.204       .  S
In1181     O1193   2.252       .  S
C1182      O1188   1.267       .  A
C1182      O1190   1.252       .  A
C1182      C1853   1.496       .  S
O1183      C1191   1.261       .  A
O1184      C1191   1.260       .  A
C1185      O1192   1.256       .  A
C1185      O1186   1.259       .  A
C1185      C1683   1.477       .  S
C1187      O1189   1.262       .  A
C1187      O1193   1.266       .  A
C1187      C1730   1.475       .  S
C1191      C1670   1.458       .  S
In1194     O1196   2.271       .  S
In1194     O1197   2.214       .  S
In1194     O1205   2.205       .  S
In1194     O1199   2.273       .  S
In1194     O1201   2.305       .  S
In1194     O1202   2.248       .  S
In1194     O1203   2.198       .  S
In1194     O1206   2.296       .  S
C1195      O1201   1.268       .  A
C1195      O1203   1.258       .  A
C1195      C1660   1.495       .  S
O1196      C1204   1.261       .  A
O1197      C1204   1.263       .  A
C1198      O1205   1.256       .  A
C1198      O1199   1.267       .  A
C1198      C1680   1.474       .  S
C1200      O1202   1.260       .  A
C1200      O1206   1.267       .  A
C1200      C1700   1.505       .  S
C1204      C1650   1.478       .  S
In1207     O1209   2.274       .  S
In1207     O1210   2.201       .  S
In1207     O1218   2.183       .  S
In1207     O1212   2.298       .  S
In1207     O1214   2.282       .  S
In1207     O1215   2.198       .  S
In1207     O1216   2.242       .  S
In1207     O1219   2.249       .  S
C1208      O1214   1.266       .  A
C1208      O1216   1.255       .  A
C1208      C1793   1.484       .  S
O1209      C1217   1.262       .  A
O1210      C1217   1.260       .  A
C1211      O1218   1.254       .  A
C1211      O1212   1.273       .  A
C1211      C1643   1.476       .  S
C1213      O1215   1.263   1_554  A
C1213      O1219   1.268   1_554  A
C1217      C1720   1.473       .  S
In1220     O1223   2.193       .  S
In1220     O1231   2.211       .  S
In1220     O1228   2.217       .  S
In1220     O1229   2.242       .  S
In1220     O1232   2.277       .  S
C1221      O1227   1.262       .  A
C1221      C1620   1.503       .  S
O1222      C1230   1.260       .  A
C1224      O1231   1.256       .  A
C1224      C1640   1.475   1_545  S
C1226      O1228   1.258       .  A
C1226      O1232   1.268       .  A
C1226      C1613   1.489       .  S
C1230      C1693   1.453       .  S
In1233     O1235   2.261       .  S
In1233     O1236   2.191       .  S
In1233     O1244   2.200       .  S
In1233     O1238   2.283       .  S
In1233     O1240   2.271       .  S
In1233     O1241   2.199       .  S
In1233     O1242   2.258       .  S
In1233     O1245   2.245       .  S
C1234      O1240   1.263       .  A
C1234      O1242   1.257       .  A
C1234      C1783   1.493       .  S
O1235      C1243   1.268       .  A
O1236      C1243   1.259       .  A
C1237      O1244   1.256       .  A
C1237      O1238   1.269       .  A
C1237      C1600   1.474       .  S
C1239      O1241   1.258       .  A
C1239      O1245   1.260       .  A
C1239      C1673   1.463       .  S
C1243      C1633   1.473       .  S
In1246     O1248   2.270       .  S
In1246     O1249   2.198       .  S
In1246     O1257   2.219       .  S
In1246     O1251   2.287       .  S
In1246     O1253   2.279       .  S
In1246     O1254   2.238       .  S
In1246     O1255   2.193       .  S
In1246     O1258   2.253       .  S
C1247      O1253   1.272       .  A
C1247      O1255   1.257       .  A
C1247      C1603   1.484   1_545  S
O1248      C1256   1.265       .  A
O1249      C1256   1.263       .  A
C1250      O1257   1.257       .  A
C1250      O1251   1.267       .  A
C1250      C1590   1.498       .  S
C1252      O1254   1.262       .  A
C1252      O1258   1.262       .  A
C1252      C1610   1.487       .  S
C1256      C1653   1.473       .  S
In1259     O1261   2.253       .  S
In1259     O1262   2.189       .  S
In1259     O1270   2.196       .  S
In1259     O1264   2.250       .  S
In1259     O1266   2.250       .  S
In1259     O1267   2.210       .  S
In1259     O1268   2.209       .  S
In1259     O1271   2.256       .  S
C1260      O1266   1.265       .  A
C1260      O1268   1.257       .  A
C1260      C1570   1.470       .  S
O1261      C1269   1.264       .  A
O1262      C1269   1.260       .  A
C1263      O1270   1.257       .  A
C1263      O1264   1.267       .  A
C1263      C1580   1.469       .  S
C1265      O1267   1.261       .  A
C1265      O1271   1.261       .  A
C1265      C1550   1.477       .  S
C1269      C1560   1.469       .  S
In1272     O1274   2.251       .  S
In1272     O1275   2.202       .  S
In1272     O1283   2.194       .  S
In1272     O1277   2.253       .  S
In1272     O1279   2.269       .  S
In1272     O1280   2.212       .  S
In1272     O1281   2.185       .  S
In1272     O1284   2.249       .  S
C1273      O1279   1.265       .  A
C1273      O1281   1.255       .  A
C1273      C1760   1.473       .  S
O1274      C1282   1.263       .  A
O1275      C1282   1.259       .  A
C1276      O1283   1.258       .  A
C1276      O1277   1.268       .  A
C1276      C1583   1.476   1_455  S
C1278      O1280   1.260       .  A
C1278      O1284   1.262       .  A
C1278      C1530   1.482       .  S
C1282      C1543   1.467       .  S
In1285     O1287   2.253       .  S
In1285     O1288   2.184       .  S
In1285     O1290   2.298       .  S
In1285     O1292   2.286       .  S
In1285     O1294   2.217       .  S
C1286      O1292   1.271       .  A
C1286      O1294   1.253       .  A
C1286      C1510   1.496       .  S
O1287      C1295   1.266       .  A
O1288      C1295   1.262       .  A
C1289      O1290   1.266       .  A
C1289      C1520   1.481       .  S
C1291      O1293   1.259       .  A
C1291      O1297   1.265       .  A
C1291      C1563   1.470       .  S
C1295      C1500   1.462       .  S
In1298     O1300   2.241       .  S
In1298     O1301   2.238       .  S
In1298     O1309   2.241       .  S
In1298     O1303   2.276       .  S
In1298     O1305   2.302       .  S
In1298     O1307   2.253       .  S
C1299      O1305   1.267       .  A
C1299      O1307   1.255       .  A
C1299      C1753   1.509       .  S
O1300      C1308   1.261       .  A
O1301      C1308   1.259       .  A
C1302      O1309   1.258       .  A
C1302      O1303   1.265       .  A
C1302      C1523   1.488       .  S
C1304      O1306   1.258       .  A
C1304      O1310   1.265       .  A
C1304      C1540   1.473       .  S
C1308      C1493   1.470       .  S
In1311     O1313   2.245       .  S
In1311     O1314   2.214       .  S
In1311     O1322   2.217       .  S
In1311     O1316   2.308       .  S
In1311     O1318   2.298       .  S
In1311     O1319   2.208       .  S
In1311     O1320   2.242       .  S
In1311     O1323   2.279       .  S
C1312      O1318   1.266       .  A
C1312      O1320   1.257       .  A
C1312      C1470   1.498       .  S
O1313      C1321   1.261       .  A
O1314      C1321   1.259       .  A
C1315      O1322   1.255       .  A
C1315      O1316   1.270       .  A
C1315      C1480   1.487       .  S
C1317      O1319   1.257       .  A
C1317      O1323   1.268       .  A
C1317      C1460   1.485       .  S
C1321      C1553   1.473       .  S
In1324     O1326   2.252       .  S
In1324     O1327   2.220       .  S
In1324     O1335   2.191       .  S
In1324     O1329   2.298       .  S
In1324     O1331   2.285       .  S
In1324     O1332   2.186       .  S
In1324     O1333   2.225       .  S
In1324     O1336   2.263       .  S
C1325      O1331   1.270       .  A
C1325      O1333   1.256       .  A
C1325      C1813   1.488       .  S
O1326      C1334   1.259       .  A
O1327      C1334   1.260       .  A
C1328      O1335   1.258       .  A
C1328      O1329   1.274       .  A
C1328      C1483   1.494       .  S
C1330      O1332   1.259       .  A
C1330      O1336   1.269       .  A
C1330      C1450   1.466       .  S
C1334      C1533   1.486       .  S
In1337     O1342   2.265       .  S
In1337     O1344   2.284       .  S
In1337     O1346   2.190       .  S
In1337     O1349   2.238       .  S
C1338      O1344   1.273       .  A
C1338      O1346   1.256       .  A
C1338      C1430   1.478       .  S
O1339      C1347   1.270       .  A
O1340      C1347   1.261       .  A
C1341      O1342   1.269       .  A
C1341      C1440   1.474       .  S
C1343      O1349   1.260       .  A
C1343      C1503   1.462       .  S
C1347      C1463   1.477       .  S
In1350     O1361   2.215   1_556  S
In1350     O1355   2.258       .  S
In1350     O1357   2.247       .  S
In1350     O1358   2.264   1_556  S
In1350     O1359   2.241       .  S
In1350     O1362   2.231       .  S
C1351      O1357   1.260       .  A
C1351      O1359   1.261       .  A
C1351      C1800   1.477       .  S
O1352      C1360   1.261       .  A
O1353      C1360   1.257       .  A
C1354      O1361   1.258   1_556  A
C1354      O1355   1.262       .  A
C1354      C1443   1.463       .  S
C1356      O1358   1.262   1_556  A
C1356      O1362   1.256       .  A
C1356      C1490   1.468       .  S
C1360      C1453   1.467       .  S
C1363      C1410   1.632       .  S
C1363      C1423   1.622       .  S
C1363      C1593   1.618       .  S
C1363      C1623   1.611       .  S
C1364      C1403   1.656       .  S
C1364      C1420   1.624       .  S
C1364      C1903   1.602       .  S
C1364      C1953   1.597       .  S
C1365      C1380   1.631       .  S
C1365      C1390   1.625       .  S
C1365      C1433   1.610       .  S
C1365      C1473   1.608       .  S
C1366      C1393   1.640       .  S
C1366      C1400   1.650       .  S
C1366      C2000   1.605       .  S
C1366      C2073   1.615       .  S
C1367      C1373   1.619       .  S
C1367      C1383   1.649       .  S
C1367      C1513   1.619       .  S
C1367      C1573   1.603       .  S
C1368      C1370   1.588       .  S
C1368      C1413   1.631       .  S
C1368      C1663   1.507       .  S
C1368      C1713   1.524       .  S
C1369      C1370   1.428       .  A
C1369      C1374   1.432       .  A
C1369     Br1376   1.942       .  S
C1370      C1371   1.423       .  A
C1371      C1372   1.390       .  A
C1371     Br1378   1.952       .  S
C1372      C1373   1.444       .  A
C1372     Br1377   1.947       .  S
C1373      C1374   1.436       .  A
C1374     Br1375   1.934       .  S
C1379      C1380   1.435       .  A
C1379      C1384   1.441       .  A
C1379     Br1386   1.947       .  S
C1380      C1381   1.443       .  A
C1381      C1382   1.438       .  A
C1381     Br1388   1.954       .  S
C1382      C1383   1.458       .  A
C1382     Br1387   1.961       .  S
C1383      C1384   1.443       .  A
C1384     Br1385   1.929       .  S
C1389      C1390   1.432       .  A
C1389      C1394   1.436       .  A
C1389     Br1396   1.949       .  S
C1390      C1391   1.431       .  A
C1391      C1392   1.433       .  A
C1391     Br1398   1.969       .  S
C1392      C1393   1.463       .  A
C1392     Br1397   1.963       .  S
C1393      C1394   1.448       .  A
C1394     Br1395   1.924       .  S
C1399      C1400   1.445       .  A
C1399      C1404   1.439       .  A
C1399     Br1406   1.936       .  S
C1400      C1401   1.461       .  A
C1401      C1402   1.449       .  A
C1401     Br1408   1.966       .  S
C1402      C1403   1.451       .  A
C1402     Br1407   1.960       .  S
C1403      C1404   1.430       .  A
C1404     Br1405   1.917       .  S
C1409      C1410   1.445       .  A
C1409      C1414   1.428       .  A
C1409     Br1416   1.912       .  S
C1410      C1411   1.432       .  A
C1411      C1412   1.415       .  A
C1411     Br1418   1.925       .  S
C1412      C1413   1.451       .  A
C1412     Br1417   1.945       .  S
C1413      C1414   1.423       .  A
C1414     Br1415   1.934       .  S
C1419      C1420   1.463       .  A
C1419      C1424   1.441       .  A
C1419     Br1426   1.973       .  S
C1420      C1421   1.427       .  A
C1421      C1422   1.410       .  A
C1421     Br1428   1.908       .  S
C1422      C1423   1.422       .  A
C1422     Br1427   1.932       .  S
C1423      C1424   1.450       .  A
C1424     Br1425   1.963       .  S
C1429      C1430   1.416       .  A
C1429      C1434   1.407       .  A
C1429     Br1436   1.927       .  S
C1430      C1431   1.404       .  A
C1431      C1432   1.411       .  A
C1431     Br1438   1.928       .  S
C1432      C1433   1.414       .  A
C1432     Br1437   1.914       .  S
C1433      C1434   1.414       .  A
C1434     Br1435   1.923       .  S
C1439      C1440   1.410       .  A
C1439     Br1446   1.926       .  S
C1441      C1442   1.398   1_655  A
C1441     Br1448   1.938       .  S
C1442      C1443   1.402       .  A
C1442     Br1447   1.935       .  S
C1443      C1444   1.406       .  A
C1444     Br1445   1.923   1_556  S
C1449      C1450   1.408       .  A
C1449      C1454   1.409       .  A
C1449     Br1456   1.925       .  S
C1450      C1451   1.407       .  A
C1451      C1452   1.402       .  A
C1451     Br1458   1.930       .  S
C1452      C1453   1.408       .  A
C1452     Br1457   1.928       .  S
C1453      C1454   1.407       .  A
C1454     Br1455   1.926       .  S
C1459      C1460   1.413       .  A
C1459      C1464   1.407       .  A
C1459     Br1466   1.931       .  S
C1460      C1461   1.413       .  A
C1461      C1462   1.412       .  A
C1461     Br1468   1.927       .  S
C1462      C1463   1.411       .  A
C1462     Br1467   1.932       .  S
C1463      C1464   1.408       .  A
C1464     Br1465   1.932       .  S
C1469      C1470   1.400       .  A
C1469      C1474   1.406       .  A
C1469     Br1476   1.927       .  S
C1470      C1471   1.406       .  A
C1471      C1472   1.425       .  A
C1471     Br1478   1.937       .  S
C1472      C1473   1.455       .  A
C1472     Br1477   1.937       .  S
C1473      C1474   1.432       .  A
C1474     Br1475   1.926       .  S
C1479      C1480   1.412       .  A
C1479      C1484   1.421   1_655  A
C1479     Br1486   1.923       .  S
C1480      C1481   1.407       .  A
C1481      C1482   1.401   1_655  A
C1481     Br1488   1.931       .  S
C1482      C1483   1.416       .  A
C1482     Br1487   1.937       .  S
C1483      C1484   1.416       .  A
C1484     Br1485   1.926       .  S
C1489      C1490   1.403       .  A
C1489      C1494   1.397       .  A
C1489     Br1496   1.924       .  S
C1490      C1491   1.411       .  A
C1491      C1492   1.413       .  A
C1491     Br1498   1.925   1_556  S
C1492      C1493   1.407       .  A
C1492     Br1497   1.924   1_556  S
C1493      C1494   1.401       .  A
C1494     Br1495   1.915       .  S
C1499      C1500   1.407       .  A
C1499      C1504   1.411       .  A
C1499     Br1506   1.928       .  S
C1500      C1501   1.404       .  A
C1501      C1502   1.389       .  A
C1501     Br1508   1.921       .  S
C1502      C1503   1.409       .  A
C1502     Br1507   1.943       .  S
C1503      C1504   1.415       .  A
C1504     Br1505   1.929       .  S
C1509      C1510   1.403       .  A
C1509      C1514   1.404       .  A
C1510      C1511   1.394       .  A
C1511      C1512   1.417       .  A
C1511     Br1518   1.937       .  S
C1512      C1513   1.469       .  A
C1512     Br1517   1.935       .  S
C1513      C1514   1.432       .  A
C1514     Br1515   1.897       .  S
C1519      C1524   1.407       .  A
C1519     Br1526   1.935       .  S
C1520      C1521   1.405       .  A
C1521      C1522   1.412       .  A
C1521     Br1528   1.926       .  S
C1522     Br1527   1.918   1_655  S
C1523      C1524   1.411   1_455  A
C1524     Br1525   1.931   1_655  S
C1529      C1530   1.415       .  A
C1529      C1534   1.408       .  A
C1529     Br1536   1.932       .  S
C1530      C1531   1.414       .  A
C1531      C1532   1.403       .  A
C1531     Br1538   1.937       .  S
C1532      C1533   1.413       .  A
C1532     Br1537   1.937       .  S
C1533      C1534   1.415       .  A
C1534     Br1535   1.932       .  S
C1539      C1540   1.410       .  A
C1539      C1544   1.406       .  A
C1539     Br1546   1.918       .  S
C1540      C1541   1.407       .  A
C1541      C1542   1.404       .  A
C1541     Br1548   1.925       .  S
C1542      C1543   1.407       .  A
C1542     Br1547   1.930       .  S
C1543      C1544   1.406       .  A
C1544     Br1545   1.932       .  S
C1549      C1550   1.411       .  A
C1549      C1554   1.406       .  A
C1549     Br1556   1.921       .  S
C1550      C1551   1.408       .  A
C1551      C1552   1.401       .  A
C1551     Br1558   1.932       .  S
C1552      C1553   1.411       .  A
C1552     Br1557   1.933       .  S
C1553      C1554   1.410       .  A
C1554     Br1555   1.926       .  S
C1559      C1560   1.411       .  A
C1559      C1564   1.409       .  A
C1559     Br1566   1.926       .  S
C1560      C1561   1.406       .  A
C1561      C1562   1.398       .  A
C1561     Br1568   1.935       .  S
C1562      C1563   1.408       .  A
C1562     Br1567   1.922       .  S
C1563      C1564   1.408       .  A
C1564     Br1565   1.928       .  S
C1569      C1570   1.401       .  A
C1569      C1574   1.423       .  A
C1569     Br1576   1.939       .  S
C1570      C1571   1.389       .  A
C1571      C1572   1.394       .  A
C1571     Br1578   1.929       .  S
C1572      C1573   1.442       .  A
C1572     Br1577   1.929       .  S
C1573      C1574   1.452       .  A
C1574     Br1575   1.916       .  S
C1579      C1580   1.411       .  A
C1579      C1584   1.406       .  A
C1579     Br1586   1.932       .  S
C1580      C1581   1.407       .  A
C1581      C1582   1.405       .  A
C1581     Br1588   1.935       .  S
C1582      C1583   1.417       .  A
C1582     Br1587   1.935   1_655  S
C1583      C1584   1.412       .  A
C1584     Br1585   1.934   1_655  S
C1589      C1590   1.422       .  A
C1589      C1594   1.426       .  A
C1589     Br1596   1.945       .  S
C1590      C1591   1.414       .  A
C1591      C1592   1.408       .  A
C1591     Br1598   1.920       .  S
C1592      C1593   1.409       .  A
C1592     Br1597   1.925       .  S
C1593      C1594   1.429       .  A
C1594     Br1595   1.928       .  S
C1599      C1600   1.410       .  A
C1599      C1604   1.410       .  A
C1599     Br1606   1.931       .  S
C1600      C1601   1.405       .  A
C1601      C1602   1.409       .  A
C1601     Br1608   1.930       .  S
C1602      C1603   1.418       .  A
C1602     Br1607   1.934   1_565  S
C1603      C1604   1.412       .  A
C1604     Br1605   1.930   1_565  S
C1609      C1610   1.414       .  A
C1609      C1614   1.407       .  A
C1609     Br1616   1.939       .  S
C1610      C1611   1.414       .  A
C1611      C1612   1.414       .  A
C1611     Br1618   1.931       .  S
C1612      C1613   1.413       .  A
C1612     Br1617   1.929       .  S
C1613      C1614   1.417       .  A
C1614     Br1615   1.939       .  S
C1619      C1620   1.414       .  A
C1619      C1624   1.417       .  A
C1619     Br1626   1.936       .  S
C1620      C1621   1.406       .  A
C1621      C1622   1.418       .  A
C1622      C1623   1.445       .  A
C1622     Br1627   1.926       .  S
C1623      C1624   1.431       .  A
C1624     Br1625   1.925       .  S
C1629      C1630   1.413       .  A
C1629      C1634   1.412       .  A
C1629     Br1636   1.928       .  S
C1630      C1631   1.413       .  A
C1631      C1632   1.400       .  A
C1632      C1633   1.411       .  A
C1632     Br1637   1.941       .  S
C1633      C1634   1.408       .  A
C1634     Br1635   1.928       .  S
C1639      C1640   1.412       .  A
C1639      C1644   1.413       .  A
C1639     Br1646   1.928   1_565  S
C1640      C1641   1.406   1_556  A
C1641      C1642   1.406   1_554  A
C1642      C1643   1.412       .  A
C1642     Br1647   1.931   1_556  S
C1643      C1644   1.408       .  A
C1644     Br1645   1.927       .  S
C1649      C1650   1.402       .  A
C1649      C1654   1.399       .  A
C1649     Br1656   1.923   1_545  S
C1650      C1651   1.412       .  A
C1651      C1652   1.414       .  A
C1651     Br1658   1.927       .  S
C1652      C1653   1.410       .  A
C1652     Br1657   1.928       .  S
C1653      C1654   1.407       .  A
C1654     Br1655   1.927       .  S
C1659      C1660   1.621       .  A
C1659      C1664   1.602       .  A
C1659     Br1666   1.911       .  S
C1660      C1661   1.612       .  A
C1661      C1662   1.619       .  A
C1661     Br1668   1.919       .  S
C1662      C1663   1.665       .  A
C1662     Br1667   1.912       .  S
C1663      C1664   1.624       .  A
C1664     Br1665   1.912       .  S
C1669      C1670   1.404       .  A
C1669      C1674   1.410       .  A
C1669     Br1676   1.924       .  S
C1670      C1671   1.401       .  A
C1671      C1672   1.393       .  A
C1671     Br1678   1.922       .  S
C1672      C1673   1.409       .  A
C1672     Br1677   1.939       .  S
C1673      C1674   1.412       .  A
C1674     Br1675   1.925       .  S
C1679      C1680   1.408   1_565  A
C1679      C1684   1.408       .  A
C1679     Br1686   1.934   1_565  S
C1680      C1681   1.411       .  A
C1681      C1682   1.408   1_545  A
C1681     Br1688   1.927       .  S
C1682      C1683   1.407       .  A
C1682     Br1687   1.928       .  S
C1683      C1684   1.415       .  A
C1684     Br1685   1.931       .  S
C1689      C1690   1.407   1_556  A
C1689      C1694   1.390   1_556  A
C1689     Br1696   1.937       .  S
C1691      C1692   1.408       .  A
C1691     Br1698   1.927       .  S
C1692      C1693   1.403       .  A
C1692     Br1697   1.923       .  S
C1694     Br1695   1.929   1_554  S
C1699      C1700   1.418       .  A
C1699      C1704   1.421       .  A
C1699     Br1706   1.929       .  S
C1700      C1701   1.415       .  A
C1701      C1702   1.414       .  A
C1701     Br1708   1.934       .  S
C1702      C1703   1.416       .  A
C1702     Br1707   1.934       .  S
C1703      C1704   1.416       .  A
C1704     Br1705   1.929       .  S
C1709      C1710   1.451       .  A
C1709      C1714   1.485       .  A
C1709     Br1716   1.941       .  S
C1711     Br1718   1.944   1_554  S
C1712      C1713   1.414       .  A
C1713      C1714   1.476       .  A
C1714     Br1715   3.700       .  S
C1719      C1720   1.402       .  A
C1719      C1724   1.400       .  A
C1719     Br1726   1.924       .  S
C1720      C1721   1.403       .  A
C1721      C1722   1.409       .  A
C1721     Br1728   1.927       .  S
C1722      C1723   1.415       .  A
C1722     Br1727   1.918       .  S
C1723      C1724   1.410       .  A
C1724     Br1725   1.928       .  S
C1729      C1730   1.409       .  A
C1729      C1734   1.403       .  A
C1729     Br1736   1.929       .  S
C1730      C1731   1.409       .  A
C1731      C1732   1.409       .  A
C1731     Br1738   1.931       .  S
C1732      C1733   1.417       .  A
C1733      C1734   1.410       .  A
C1734     Br1735   1.934       .  S
C1739      C1740   1.416       .  A
C1739      C1744   1.405   1_565  A
C1740      C1741   1.412       .  A
C1741      C1742   1.408   1_565  A
C1741     Br1748   1.932       .  S
C1742      C1743   1.408       .  A
C1742     Br1747   1.930       .  S
C1743      C1744   1.403       .  A
C1749      C1750   1.445       .  A
C1749      C1754   1.432       .  A
C1749     Br1756   1.911       .  S
C1750      C1751   1.443       .  A
C1751      C1752   1.412       .  A
C1751     Br1758   1.914       .  S
C1752      C1753   1.400       .  A
C1752     Br1757   1.936       .  S
C1753      C1754   1.413       .  A
C1754     Br1755   1.938       .  S
C1759      C1760   1.405       .  A
C1759      C1764   1.394       .  A
C1759     Br1766   1.927       .  S
C1760      C1761   1.412       .  A
C1761      C1762   1.413       .  A
C1761     Br1768   1.934       .  S
C1762      C1763   1.416       .  A
C1762     Br1767   1.922       .  S
C1763      C1764   1.413       .  A
C1764     Br1765   1.901       .  S
C1769      C1770   1.446       .  A
C1769      C1774   1.409       .  A
C1769     Br1776   1.928       .  S
C1770      C1771   1.444       .  A
C1771      C1772   1.418       .  A
C1771     Br1778   1.928       .  S
C1772      C1773   1.442       .  A
C1772     Br1777   1.962       .  S
C1773      C1774   1.405       .  A
C1774     Br1775   1.931       .  S
C1779      C1780   1.402       .  A
C1779      C1784   1.390       .  A
C1779     Br1786   1.912       .  S
C1780      C1781   1.435       .  A
C1781      C1782   1.433       .  A
C1781     Br1788   1.917       .  S
C1782      C1783   1.418       .  A
C1782     Br1787   1.929       .  S
C1783      C1784   1.407       .  A
C1784     Br1785   1.920       .  S
C1789      C1790   1.451       .  A
C1789      C1794   1.415       .  A
C1789     Br1796   1.917       .  S
C1790      C1791   1.440       .  A
C1791      C1792   1.417       .  A
C1791     Br1798   1.905       .  S
C1792      C1793   1.393       .  A
C1792     Br1797   1.931       .  S
C1793      C1794   1.397       .  A
C1794     Br1795   1.936       .  S
C1799      C1800   1.393       .  A
C1799      C1804   1.413       .  A
C1800      C1801   1.398       .  A
C1801      C1802   1.413       .  A
C1801     Br1808   1.950       .  S
C1802      C1803   1.452       .  A
C1802     Br1807   1.936       .  S
C1803      C1804   1.442       .  A
C1809      C1810   1.397       .  A
C1809      C1814   1.401       .  A
C1809     Br1816   1.915       .  S
C1810      C1811   1.439       .  A
C1811      C1812   1.429       .  A
C1811     Br1818   1.919       .  S
C1812      C1813   1.414       .  A
C1812     Br1817   1.930       .  S
C1813      C1814   1.404       .  A
C1814     Br1815   1.909       .  S
C1819      C1820   1.439       .  A
C1819      C1824   1.444       .  A
C1819     Br1826   1.917       .  S
C1820      C1821   1.441       .  A
C1821      C1822   1.416       .  A
C1821     Br1828   1.934       .  S
C1822      C1823   1.425       .  A
C1822     Br1827   1.916       .  S
C1823      C1824   1.447       .  A
C1824     Br1825   1.947       .  S
C1829      C1830   1.421       .  A
C1829      C1834   1.421       .  A
C1829     Br1836   1.933       .  S
C1830      C1831   1.434       .  A
C1831      C1832   1.439       .  A
C1831     Br1838   1.948       .  S
C1832      C1833   1.457       .  A
C1832     Br1837   1.954       .  S
C1833      C1834   1.449       .  A
C1834     Br1835   1.937       .  S
C1839      C1840   1.430       .  A
C1839      C1844   1.442       .  A
C1839     Br1846   1.950       .  S
C1840      C1841   1.422       .  A
C1841      C1842   1.407       .  A
C1841     Br1848   1.935       .  S
C1842      C1843   1.456       .  A
C1842     Br1847   1.936       .  S
C1843      C1844   1.445       .  A
C1844     Br1845   1.906       .  S
C1849      C1850   1.450       .  A
C1849      C1854   1.411       .  A
C1849     Br1856   1.909       .  S
C1850      C1851   1.471       .  A
C1851      C1852   1.416       .  A
C1851     Br1858   1.945       .  S
C1852      C1853   1.395       .  A
C1852     Br1857   1.937       .  S
C1853      C1854   1.400       .  A
C1854     Br1855   1.942       .  S
C1859      C1860   1.404       .  A
C1859      C1864   1.422       .  A
C1859     Br1866   1.935       .  S
C1860      C1861   1.389       .  A
C1861      C1862   1.396       .  A
C1861     Br1868   1.935       .  S
C1862      C1863   1.448       .  A
C1862     Br1867   1.936       .  S
C1863      C1864   1.443       .  A
C1864     Br1865   1.914       .  S
C1869      C1870   1.469       .  A
C1869      C1874   1.425       .  A
C1869     Br1876   1.945       .  S
C1870      C1871   1.429       .  A
C1871      C1872   1.445       .  A
C1871     Br1878   1.938       .  S
C1872      C1873   1.442       .  A
C1872     Br1877   1.924       .  S
C1873      C1874   1.412       .  A
C1874     Br1875   1.931       .  S
C1879      C1880   1.440       .  A
C1879      C1884   1.423       .  A
C1879     Br1886   1.929       .  S
C1880      C1881   1.443       .  A
C1881      C1882   1.413       .  A
C1881     Br1888   1.940       .  S
C1882      C1883   1.438       .  A
C1882     Br1887   1.921       .  S
C1883      C1884   1.445       .  A
C1884     Br1885   1.938       .  S
C1889      C1890   1.411       .  A
C1889      C1894   1.425       .  A
C1889     Br1896   1.928       .  S
C1890      C1891   1.398       .  A
C1891      C1892   1.399       .  A
C1891     Br1898   1.928       .  S
C1892      C1893   1.422       .  A
C1892     Br1897   1.912       .  S
C1893      C1894   1.445       .  A
C1894     Br1895   1.952       .  S
C1899      C1900   1.433       .  A
C1899      C1904   1.433       .  A
C1899     Br1906   1.932       .  S
C1900      C1901   1.411       .  A
C1901      C1902   1.391       .  A
C1901     Br1908   1.922       .  S
C1902      C1903   1.412       .  A
C1902     Br1907   1.947       .  S
C1903      C1904   1.431       .  A
C1904     Br1905   1.916       .  S
C1909      C1910   1.409       .  A
C1909      C1914   1.413       .  A
C1909     Br1916   1.930       .  S
C1910      C1911   1.415       .  A
C1911      C1912   1.409       .  A
C1911     Br1918   1.932       .  S
C1912      C1913   1.412       .  A
C1912     Br1917   1.934       .  S
C1913      C1914   1.417       .  A
C1914     Br1915   1.929       .  S
C1919      C1920   1.410       .  A
C1919      C1924   1.405       .  A
C1919     Br1926   1.931       .  S
C1920      C1921   1.414       .  A
C1921      C1922   1.409       .  A
C1922      C1923   1.411       .  A
C1922     Br1927   1.930       .  S
C1923      C1924   1.409       .  A
C1924     Br1925   1.932       .  S
C1929      C1930   1.409       .  A
C1929      C1934   1.398       .  A
C1929     Br1936   1.925       .  S
C1930      C1931   1.426       .  A
C1931      C1932   1.426       .  A
C1931     Br1938   1.946       .  S
C1932      C1933   1.436       .  A
C1932     Br1937   1.923       .  S
C1933      C1934   1.423       .  A
C1934     Br1935   1.930       .  S
C1939      C1940   1.409       .  A
C1939      C1944   1.403       .  A
C1939     Br1946   1.930       .  S
C1940      C1941   1.413       .  A
C1941      C1942   1.410       .  A
C1941     Br1948   1.929       .  S
C1942      C1943   1.407       .  A
C1942     Br1947   1.925       .  S
C1943      C1944   1.406       .  A
C1944     Br1945   1.929       .  S
C1949      C1950   1.407       .  A
C1949      C1954   1.389       .  A
C1950      C1951   1.415       .  A
C1951      C1952   1.429       .  A
C1951     Br1958   1.936       .  S
C1952      C1953   1.448       .  A
C1952     Br1957   1.932       .  S
C1953      C1954   1.399       .  A
C1959      C1960   1.410       .  A
C1959      C1964   1.415       .  A
C1959     Br1966   1.925       .  S
C1960      C1961   1.409       .  A
C1961      C1962   1.396       .  A
C1961     Br1968   1.932       .  S
C1962      C1963   1.414       .  A
C1962     Br1967   1.941       .  S
C1963      C1964   1.411       .  A
C1964     Br1965   1.926       .  S
C1969      C1970   1.409       .  A
C1969      C1974   1.399       .  A
C1969     Br1976   1.928       .  S
C1970      C1971   1.411       .  A
C1971      C1972   1.405       .  A
C1971     Br1978   1.923       .  S
C1972      C1973   1.403       .  A
C1972     Br1977   1.918       .  S
C1973      C1974   1.403       .  A
C1974     Br1975   1.928       .  S
C1979      C1980   1.446       .  A
C1979      C1984   1.420       .  A
C1979     Br1986   1.914       .  S
C1980      C1981   1.450       .  A
C1981      C1982   1.399       .  A
C1981     Br1988   1.919       .  S
C1982      C1983   1.393       .  A
C1982     Br1987   1.945       .  S
C1983      C1984   1.402       .  A
C1984     Br1985   1.938       .  S
C1989      C1990   1.412       .  A
C1989      C1994   1.401       .  A
C1989     Br1996   1.938       .  S
C1990      C1991   1.410       .  A
C1991      C1992   1.406       .  A
C1991     Br1998   1.933       .  S
C1992      C1993   1.411       .  A
C1992     Br1997   1.932       .  S
C1993      C1994   1.413       .  A
C1994     Br1995   1.939       .  S
C1999      C2000   1.412       .  A
C1999      C2004   1.384       .  A
C1999     Br2006   1.936       .  S
C2000      C2001   1.443       .  A
C2001      C2002   1.431       .  A
C2001     Br2008   1.920       .  S
C2002      C2003   1.431       .  A
C2002     Br2007   1.940       .  S
C2003      C2004   1.411       .  A
C2004     Br2005   1.924       .  S
C2009      C2010   1.413       .  A
C2009      C2014   1.406       .  A
C2009     Br2016   1.936       .  S
C2010      C2011   1.411       .  A
C2011      C2012   1.406       .  A
C2011     Br2018   1.931       .  S
C2012      C2013   1.412       .  A
C2012     Br2017   1.931       .  S
C2013      C2014   1.412       .  A
C2014     Br2015   1.933       .  S
C2019      C2020   1.407       .  A
C2019      C2024   1.413       .  A
C2019     Br2026   1.920       .  S
C2020      C2021   1.391       .  A
C2021      C2022   1.392       .  A
C2021     Br2028   1.907       .  S
C2022      C2023   1.401       .  A
C2022     Br2027   1.903       .  S
C2023      C2024   1.409       .  A
C2024     Br2025   1.916       .  S
C2029      C2030   1.413       .  A
C2029      C2034   1.401       .  A
C2029     Br2036   1.937       .  S
C2030      C2031   1.409       .  A
C2031      C2032   1.405       .  A
C2031     Br2038   1.931       .  S
C2032      C2033   1.409       .  A
C2032     Br2037   1.931       .  S
C2033      C2034   1.410       .  A
C2039      C2040   1.394       .  A
C2039      C2044   1.430       .  A
C2039     Br2046   1.930       .  S
C2040      C2041   1.390       .  A
C2041      C2042   1.417       .  A
C2041     Br2048   1.947       .  S
C2042      C2043   1.458       .  A
C2042     Br2047   1.923       .  S
C2043      C2044   1.445       .  A
C2044     Br2045   1.902       .  S
C2049      C2054   1.402       .  A
C2049     Br2056   1.939       .  S
C2050      C2051   1.410       .  A
C2051      C2052   1.408       .  A
C2051     Br2058   1.935       .  S
C2052      C2053   1.418       .  A
C2052     Br2057   1.934       .  S
C2054     Br2055   1.938       .  S
C2059      C2060   1.411       .  A
C2059      C2064   1.410       .  A
C2059     Br2066   1.928       .  S
C2060      C2061   1.408       .  A
C2061      C2062   1.402       .  A
C2061     Br2068   1.930       .  S
C2062      C2063   1.407       .  A
C2062     Br2067   1.931       .  S
C2063      C2064   1.409       .  A
C2064     Br2065   1.927       .  S
C2069      C2070   1.413       .  A
C2069      C2074   1.399       .  A
C2069     Br2076   1.927       .  S
C2070      C2071   1.424       .  A
C2071      C2072   1.433       .  A
C2071     Br2078   1.941       .  S
C2072      C2073   1.442       .  A
C2072     Br2077   1.911       .  S
C2073      C2074   1.413       .  A
C2074     Br2075   1.924       .  S
C2079      C2080   1.416       .  A
C2079      C2084   1.408       .  A
C2079     Br2086   1.933       .  S
C2080      C2081   1.410       .  A
C2081      C2082   1.415       .  A
C2082      C2083   1.413       .  A
C2083      C2084   1.405       .  A
C2084     Br2085   1.931       .  S
