geometry optimzed in LAMMPS
_audit_creation_date              2020-11-30 
_audit_creation_method            'lammps2cif' 
_symmetry_space_group_name_H-M    'P1' 
_symmetry_Int_Tables_number       1 
_symmetry_cell_setting            triclinic 
loop_ 
_symmetry_equiv_pos_as_xyz 
  x,y,z 
_cell_length_a                    31.28418316148748 
_cell_length_b                    31.383350298697263 
_cell_length_c                    31.34340985862826 
_cell_angle_alpha                 90.63608218847168 
_cell_angle_beta                  89.94143035110663 
_cell_angle_gamma                 89.97859656355585 
loop_ 
_atom_site_label 
_atom_site_type_symbol 
_atom_site_fract_x 
_atom_site_fract_y 
_atom_site_fract_z 
_atom_site_charge 
C1          C  0.50078966  0.24980168  0.23052345     0.00420
C2          C  0.99787074  0.25037482  0.27485605     0.00420
O3          O  0.50158409  0.11873061  0.07421601    -0.86630
O4          O  0.50150841  0.37752446  0.07054664    -0.86790
O5          O  0.42918478  0.00464098  0.12000595    -0.88460
O6          O  0.07061411  0.99785357  0.12316852    -0.87220
O7          O  0.12430538  0.99728107  0.07323109    -0.86810
O8          O  0.37858043  0.00341646  0.06688826    -0.88180
O9          O  0.50017910  0.42927693  0.12299978    -0.86660
O10         O  0.50242466  0.06682181  0.12530753    -0.86240
Zr11       Zr  0.50044946  0.99836108  0.08790421     2.84310
O12         O  0.04418668  0.45477424  0.04544201    -1.08220
O13         O  0.45852026  0.04117744  0.04380125    -1.08950
C14         C  0.50212431  0.10604558  0.11338171     1.06480
C15         C  0.50111408  0.39004482  0.11010673     1.06420
C16         C  0.39014832  0.00618711  0.10646163     1.09400
C17         C  0.11051476  0.99780775  0.11188111     1.07180
H18         H  0.43808735  0.43869206  0.06044689     0.32740
O19         O  0.45669501  0.45613361  0.04330376    -1.29170
H20         H  0.06275057  0.05880963  0.06494982     0.32420
O21         O  0.04526432  0.04110503  0.04660341    -1.30850
O22         O  0.50338792  0.38018329  0.42909604    -0.86620
O23         O  0.50129470  0.11880837  0.43318914    -0.88120
O24         O  0.37926654  0.43136244  0.99489230    -0.86700
O25         O  0.12183852  0.42453973  0.00071073    -0.86750
O26         O  0.12355044  0.06880235  0.50394840    -0.86460
O27         O  0.38044726  0.06852570  0.50152359    -0.86270
O28         O  0.44037097  0.50107706  0.37828261    -0.86640
O29         O  0.07826688  0.50371692  0.38537734    -0.86100
O30         O  0.38488555  0.50248032  0.42535591    -0.87160
O31         O  0.12904235  0.49994402  0.43787907    -0.86320
O32         O  0.43040255  0.37893277  0.99618756    -0.86720
O33         O  0.43257780  0.11906078  0.50687289    -0.86440
O34         O  0.07134262  0.12026357  0.50333641    -0.86090
O35         O  0.06805864  0.37534300  0.00130489    -0.86500
O36         O  0.51012173  0.43254069  0.37885479    -0.86800
O37         O  0.50574495  0.06807574  0.38064843    -0.88140
Zr38       Zr  0.50075394  0.41289875  0.00071365     2.83100
Zr39       Zr  0.50274520  0.08470597  0.50345455     2.83500
Zr40       Zr  0.41583697  0.99966556  0.49806980     2.84090
Zr41       Zr  0.08985037  0.49737181  0.00446350     2.83360
Zr42       Zr  0.50697454  0.50007158  0.41674227     2.84220
O43         O  0.04864645  0.04237352  0.46168377    -1.08710
O44         O  0.46058673  0.45666452  0.45599589    -1.08210
C45         C  0.50738145  0.39335988  0.39028665     1.06450
C46         C  0.50232067  0.10704265  0.39335291     1.09070
C47         C  0.39119234  0.39201733  0.99469853     1.06630
C48         C  0.10777733  0.38541417  0.99934335     1.06980
C49         C  0.11068342  0.10820163  0.50361528     1.06570
C50         C  0.39285392  0.10741591  0.50596500     1.06120
C51         C  0.40042459  0.50233885  0.38685174     1.06550
C52         C  0.11730690  0.50323050  0.39867796     1.06060
H53         H  0.44387179  0.06090256  0.43991964     0.32740
O54         O  0.46104931  0.04287067  0.45784007    -1.29810
H55         H  0.06519124  0.43749034  0.44205208     0.32760
O56         O  0.04710845  0.45515470  0.45988472    -1.31190
C57         C  0.27363626  0.00103816  0.25009763     0.00420
C58         C  0.23014207  0.99409617  0.25433428     0.00420
C59         C  0.23159493  0.24808812  0.48450198     0.00420
C60         C  0.27483758  0.24968634  0.99648393     0.00420
C61         C  0.36098630  0.32710718  0.46128421    -0.05920
C62         C  0.35734045  0.35905884  0.99247464     0.00010
C63         C  0.32316303  0.35734029  0.02200083    -0.08570
C64         C  0.29562557  0.32199285  0.02103835    -0.05940
C65         C  0.29959812  0.28973318  0.98998269    -0.00010
C66         C  0.33152659  0.29347359  0.45794756    -0.08470
C67         C  0.33473294  0.26320645  0.41986389     0.61900
H68         H  0.38821329  0.32780387  0.44040435     0.12600
H69         H  0.27106727  0.31861048  0.04516116     0.12610
C70         C  0.31689435  0.39157807  0.05547833     0.62140
F71         F  0.36458235  0.27722003  0.39088223    -0.23030
F72         F  0.29645813  0.26125343  0.39831715    -0.20360
F73         F  0.34630931  0.22288636  0.93249424    -0.20030
F74         F  0.30554916  0.42938699  0.53630009    -0.20090
F75         F  0.35456635  0.39702351  0.07759707    -0.20410
F76         F  0.28509519  0.38108545  0.08418063    -0.23080
C77         C  0.37432330  0.18380306  0.51529551    -0.05920
C78         C  0.35965302  0.14175722  0.51078660     0.00010
C79         C  0.31496410  0.13457234  0.01680491    -0.08570
C80         C  0.28726826  0.17022814  0.01918395    -0.05940
C81         C  0.30195676  0.21239067  0.51468666    -0.00010
C82         C  0.34625722  0.21753036  0.52399419    -0.08470
C83         C  0.36290214  0.25048483  0.55556102     0.61900
H84         H  0.40830772  0.19015094  0.51750488     0.12600
H85         H  0.25479547  0.16453140  0.02775099     0.12610
C86         C  0.29588182  0.09030394  0.02208426     0.62140
F87         F  0.38935997  0.23089250  0.08470421    -0.23030
F88         F  0.33021939  0.26920921  0.07864401    -0.20360
F89         F  0.38675617  0.28095630  0.53501104    -0.20030
F90         F  0.31539816  0.07008635  0.05586493    -0.20090
F91         F  0.30122650  0.06656402  0.48493613    -0.20410
F92         F  0.25244252  0.09167115  0.53051252    -0.23080
C93         C  0.18303106  0.35823693  0.99630037    -0.05920
C94         C  0.13913607  0.34933770  0.99255233     0.00010
C95         C  0.12723025  0.30822812  0.47581850    -0.08570
C96         C  0.15969188  0.27934200  0.46354187    -0.05940
C97         C  0.20335480  0.28712431  0.97174918    -0.00010
C98         C  0.21351590  0.33107370  0.97711138    -0.08470
C99         C  0.23710261  0.35435082  0.94207256     0.61900
H100        H  0.19278512  0.39047798  0.00438873     0.12600
H101        H  0.15070270  0.24850347  0.45082190     0.12610
C102        C  0.08114347  0.29283104  0.47247830     0.62140
F103        F  0.20762451  0.37509327  0.91684374    -0.23030
F104        F  0.25952568  0.32728308  0.41580473    -0.20360
F105        F  0.26440683  0.38463062  0.95908427    -0.20030
F106        F  0.05890552  0.31757130  0.44409269    -0.20090
F107        F  0.06189778  0.29468603  0.01217872    -0.20410
F108        F  0.07818947  0.25104977  0.45808778    -0.23080
C109        C  0.17554556  0.20966276  0.52452458    -0.05920
C110        C  0.20562043  0.20794128  0.49114107     0.00010
C111        C  0.20500514  0.17163360  0.96309355    -0.08570
C112        C  0.17518971  0.13893561  0.97032260    -0.05940
C113        C  0.14346695  0.14247127  0.50169843    -0.00010
C114        C  0.14238425  0.17958899  0.52803678    -0.08470
C115        C  0.10541423  0.18913320  0.55802953     0.61900
H116        H  0.17577268  0.23754261  0.54521963     0.12600
H117        H  0.17532002  0.11101707  0.94958346     0.12610
C118        C  0.23468510  0.16448527  0.92569323     0.62140
F119        F  0.11303002  0.22490403  0.58304793    -0.23030
F120        F  0.09875145  0.15512950  0.08461967    -0.20360
F121        F  0.06874247  0.19669516  0.53470852    -0.20030
F122        F  0.25544771  0.12584723  0.92998909    -0.20090
F123        F  0.26502069  0.19546066  0.42262900    -0.20410
F124        F  0.21113452  0.16359875  0.38832523    -0.23080
C125        C  0.33187876  0.02750301  0.35608919    -0.05920
C126        C  0.37021717  0.50462734  0.34990527     0.00010
C127        C  0.37733637  0.48614712  0.30840594    -0.08570
C128        C  0.34156445  0.47924506  0.28270796    -0.05940
C129        C  0.30415421  0.50351426  0.28741552    -0.00010
C130        C  0.30198502  0.03229457  0.32280016    -0.08470
C131        C  0.27384427  0.07151053  0.32487953     0.61900
H132        H  0.32761419  0.04591706  0.38527724     0.12600
H133        H  0.34529543  0.45918690  0.25454550     0.12610
C134        C  0.41939741  0.47974235  0.28394541     0.62140
F135        F  0.29870645  0.10672503  0.33479267    -0.23030
F136        F  0.24345347  0.56676516  0.35658154    -0.20360
F137        F  0.25416037  0.07970858  0.28642960    -0.20030
F138        F  0.42170005  0.43861836  0.26776017    -0.20090
F139        F  0.45631916  0.98788555  0.30615147    -0.20410
F140        F  0.41929415  0.50702313  0.24955332    -0.23080
C141        C  0.18268266  0.47373457  0.36545915    -0.05920
C142        C  0.15110921  0.50541401  0.36605705     0.00010
C143        C  0.15099011  0.03691802  0.33429533    -0.08570
C144        C  0.17860655  0.03197339  0.29953927    -0.05940
C145        C  0.20811777  0.49806576  0.29649176    -0.00010
C146        C  0.21133021  0.46899774  0.33107095    -0.08470
C147        C  0.24106172  0.43081567  0.33320341     0.61900
H148        H  0.18323037  0.45073069  0.39099599     0.12600
H149        H  0.17670406  0.05440025  0.27356871     0.12610
C150        C  0.12226349  0.07581498  0.33705769     0.62140
F151        F  0.26748539  0.43526073  0.36832862    -0.23030
F152        F  0.26622559  0.92539306  0.29769714    -0.20360
F153        F  0.21704906  0.39415125  0.33756056    -0.20030
F154        F  0.12465060  0.09394733  0.37741895    -0.20090
F155        F  0.08049659  0.56363570  0.32817479    -0.20410
F156        F  0.13393307  0.10653800  0.30789122    -0.23080
C157        C  0.13631119  0.46747545  0.17875263    -0.05920
C158        C  0.14282285  0.99681237  0.14622694     0.00010
C159        C  0.17891746  0.02404095  0.14778226    -0.08570
C160        C  0.20516736  0.02315809  0.18415802    -0.05940
C161        C  0.20020748  0.99243311  0.21625949    -0.00010
C162        C  0.16474246  0.46350623  0.21308326    -0.08470
C163        C  0.15459339  0.42911427  0.24546261     0.61900
H164        H  0.10836809  0.44714873  0.17676718     0.12600
H165        H  0.22983825  0.04697520  0.18774821     0.12610
C166        C  0.19027658  0.05358864  0.11136024     0.62140
F167        F  0.12667528  0.39885900  0.22901971    -0.23030
F168        F  0.13533522  0.94729881  0.28110328    -0.20360
F169        F  0.19100738  0.40766447  0.25705441    -0.20030
F170        F  0.15584760  0.07903214  0.10116654    -0.20090
F171        F  0.20187350  0.52946003  0.07593034    -0.20410
F172        F  0.22430812  0.07999926  0.12154592    -0.23080
C173        C  0.32566135  0.47683051  0.14080185    -0.05920
C174        C  0.35580104  0.00954856  0.13916680     0.00010
C175        C  0.35390471  0.04263542  0.17007773    -0.08570
C176        C  0.32284252  0.04035255  0.20257901    -0.05940
C177        C  0.29623087  0.00440268  0.20751636     0.00050
C178        C  0.29839383  0.47140416  0.17591744    -0.08470
C179        C  0.27629551  0.42851666  0.17825446     0.61900
H180        H  0.32616376  0.45288989  0.11622356     0.12600
H181        H  0.32126940  0.06537723  0.22660096     0.12610
C182        C  0.38439675  0.08013757  0.16878996     0.62140
F183        F  0.30502602  0.89641417  0.16861624    -0.23030
F184        F  0.24315699  0.92722750  0.14899463    -0.20360
F185        F  0.26054598  0.41990948  0.21793751    -0.20030
F186        F  0.38280124  0.09872047  0.12902057    -0.20090
F187        F  0.42555125  0.56654900  0.17677157    -0.20410
F188        F  0.37410103  0.61084323  0.19912757    -0.23080
C189        C  0.98234572  0.16975361  0.28965529    -0.05920
C190        C  0.48933890  0.21186938  0.30418220     0.00010
C191        C  0.48853601  0.21705624  0.34934460    -0.08570
C192        C  0.50199358  0.18344883  0.37481790    -0.05940
C193        C  0.49846279  0.14120630  0.36038360    -0.00010
C194        C  0.98492408  0.13434632  0.31721167    -0.08470
C195        C  0.97007593  0.09119365  0.30048338     0.61900
H196        H  0.97138719  0.16409572  0.25786998     0.12600
H197        H  0.50705432  0.19013800  0.40844164     0.12610
C198        C  0.45678642  0.24677426  0.37089755     0.62140
F199        F  0.95323357  0.09351398  0.25976017    -0.23030
F200        F  0.50362283  0.06289565  0.29877999    -0.20360
F201        F  0.93833861  0.07581418  0.32682228    -0.20030
F202        F  0.42691541  0.26083052  0.34189065    -0.20090
F203        F  0.97756203  0.28060555  0.38996776    -0.20410
F204        F  0.43432654  0.22559270  0.40238908    -0.23080
C205        C  0.04405321  0.33589621  0.34960985    -0.05920
C206        C  0.50756983  0.36114879  0.35580009     0.00010
C207        C  0.47072493  0.35344394  0.33099501    -0.08570
C208        C  0.47156254  0.32046672  0.30054358    -0.05940
C209        C  0.50601679  0.29189840  0.29752910    -0.00010
C210        C  0.04328457  0.29980420  0.32254854    -0.08470
C211        C  0.08173593  0.27029955  0.32485469     0.61900
H212        H  0.07234192  0.34251806  0.36849781     0.12600
H213        H  0.44231659  0.31248068  0.28416612     0.12610
C214        C  0.42845812  0.37443842  0.34194744     0.62140
F215        F  0.11787125  0.29213273  0.31211201    -0.23030
F216        F  0.07793652  0.23402859  0.29986039    -0.20360
F217        F  0.08731445  0.25754870  0.36657911    -0.20030
F218        F  0.43327898  0.41767526  0.34633878    -0.20090
F219        F  0.41429334  0.35903054  0.38023256    -0.20410
F220        F  0.39744357  0.36646618  0.31139676    -0.23080
C221        C  0.46789984  0.31509709  0.19897364    -0.05920
C222        C  0.50485756  0.29034836  0.20474768     0.00010
C223        C  0.04206706  0.30128363  0.18090341    -0.08570
C224        C  0.03974798  0.33436650  0.15072535    -0.05940
C225        C  0.50184686  0.35688571  0.14359054    -0.00010
C226        C  0.46536398  0.34730079  0.16820961    -0.08470
C227        C  0.42265789  0.36766365  0.15847154     0.61900
H228        H  0.43931102  0.30646812  0.21588101     0.12600
H229        H  0.06744969  0.34216975  0.13155449     0.12610
C230        C  0.08405183  0.27785866  0.18553776     0.62140
F231        F  0.39040064  0.35312307  0.18484316    -0.23030
F232        F  0.41197397  0.35747108  0.11688694    -0.20360
F233        F  0.42512841  0.41143013  0.16327995    -0.20030
F234        F  0.08304099  0.24074580  0.16163629    -0.20090
F235        F  0.09154495  0.26839574  0.22761316    -0.20410
F236        F  0.11805008  0.30228339  0.17154112    -0.23080
C237        C  0.46609633  0.16723182  0.14744185    -0.05920
C238        C  0.50111370  0.13950458  0.14699329     0.00010
C239        C  0.03370268  0.14469520  0.17800420    -0.08570
C240        C  0.03295940  0.18134455  0.20446695    -0.05940
C241        C  0.49841657  0.21002574  0.20390446    -0.00010
C242        C  0.46262977  0.20038026  0.17765289    -0.08470
C243        C  0.41950201  0.22182480  0.18317227     0.61900
H244        H  0.44036436  0.16178032  0.12489732     0.12600
H245        H  0.05877376  0.18738047  0.22668697     0.12610
C246        C  0.06830678  0.11140776  0.18393583     0.62140
F247        F  0.38675811  0.19436448  0.17168395    -0.23030
F248        F  0.41712593  0.25708184  0.15746592    -0.20360
F249        F  0.41265260  0.23357195  0.22529062    -0.20030
F250        F  0.08812226  0.10234348  0.14564604    -0.20090
F251        F  0.05015577  0.07447799  0.19932898    -0.20410
F252        F  0.09925613  0.12486827  0.21260261    -0.23080
C253        C  0.50079666  0.24980956  0.73052452     0.00420
C254        C  0.99789591  0.25038818  0.77485485     0.00420
O255        O  0.50156484  0.11871238  0.57424588    -0.86630
O256        O  0.50149341  0.37752579  0.57053576    -0.86790
O257        O  0.42917166  0.00461073  0.62000631    -0.88460
O258        O  0.07060485  0.99774305  0.62319752    -0.87220
O259        O  0.12428745  0.99717929  0.57325222    -0.86810
O260        O  0.37857359  0.00338297  0.56688120    -0.88180
O261        O  0.50017855  0.42928353  0.62298348    -0.86660
O262        O  0.50241935  0.06679851  0.62533203    -0.86240
Zr263      Zr  0.50043824  0.99833975  0.58791673     2.84310
O264        O  0.04416664  0.45477236  0.54545523    -1.08220
O265        O  0.45850742  0.04115347  0.54381044    -1.08950
C266        C  0.50211150  0.10602442  0.61341073     1.06480
C267        C  0.50110911  0.39004953  0.61009473     1.06420
C268        C  0.39013759  0.00614998  0.60645620     1.09400
C269        C  0.11050384  0.99767720  0.61190269     1.07180
H270        H  0.43806890  0.43868860  0.56043950     0.32740
O271        O  0.45667223  0.45612990  0.54329142    -1.29170
H272        H  0.06274948  0.05878309  0.56499010     0.32420
O273        O  0.04526248  0.04108615  0.54663583    -1.30850
O274        O  0.50341960  0.38019439  0.92910270    -0.86620
O275        O  0.50127882  0.11881119  0.93316480    -0.88120
O276        O  0.37924004  0.43134441  0.49489002    -0.86700
O277        O  0.12181866  0.42453949  0.50072253    -0.86750
O278        O  0.12356011  0.06881639  0.00388673    -0.86460
O279        O  0.38045938  0.06855026  0.00153397    -0.86270
O280        O  0.44041911  0.50108548  0.87829246    -0.86640
O281        O  0.07828233  0.50371341  0.88536586    -0.86100
O282        O  0.38492957  0.50249242  0.92536141    -0.87160
O283        O  0.12905993  0.49993680  0.93786515    -0.86320
O284        O  0.43038084  0.37891986  0.49618650    -0.86720
O285        O  0.43259706  0.11907905  0.00686568    -0.86440
O286        O  0.07135396  0.12028028  0.00329484    -0.86090
O287        O  0.06803878  0.37534286  0.50131628    -0.86500
O288        O  0.51018082  0.43255558  0.87886899    -0.86800
O289        O  0.50573290  0.06808189  0.88061696    -0.88140
Zr290      Zr  0.50072841  0.41289555  0.50070101     2.83100
Zr291      Zr  0.50275683  0.08471672  0.00342935     2.83500
Zr292      Zr  0.41583941  0.99968785  0.99807558     2.84090
Zr293      Zr  0.08982986  0.49737153  0.50447849     2.83360
Zr294      Zr  0.50702013  0.50007956  0.91676724     2.84220
O295        O  0.04864398  0.04238627  0.96165183    -1.08710
O296        O  0.46062108  0.45667627  0.95601071    -1.08210
C297        C  0.50742787  0.39337402  0.89029533     1.06450
C298        C  0.50230000  0.10704921  0.89332822     1.09070
C299        C  0.39116910  0.39199996  0.49469938     1.06630
C300        C  0.10775722  0.38541396  0.49935404     1.06980
C301        C  0.11069487  0.10821624  0.00356089     1.06570
C302        C  0.39287221  0.10743846  0.00596998     1.06120
C303        C  0.40047061  0.50234881  0.88685756     1.06550
C304        C  0.11732262  0.50322245  0.89866502     1.06060
H305        H  0.44386586  0.06091190  0.93991062     0.32740
O306        O  0.46104580  0.04288217  0.95783008    -1.29810
H307        H  0.06520780  0.43749310  0.94203845     0.32760
O308        O  0.04712530  0.45515768  0.95987115    -1.31190
C309        C  0.27364881  0.00086546  0.75009757     0.00420
C310        C  0.23016410  0.99386855  0.75430265     0.00420
C311        C  0.23162787  0.24809404  0.98449979     0.00420
C312        C  0.27480720  0.24966799  0.49647829     0.00420
C313        C  0.36100222  0.32713314  0.96127638    -0.05920
C314        C  0.35732016  0.35903677  0.49247856     0.00010
C315        C  0.32313785  0.35732080  0.52199972    -0.08570
C316        C  0.29559977  0.32197364  0.52103577    -0.05940
C317        C  0.29957380  0.28971272  0.48998154    -0.00010
C318        C  0.33154649  0.29349659  0.95794413    -0.08470
C319        C  0.33475804  0.26322465  0.91986445     0.61900
H320        H  0.38822722  0.32783037  0.94039482     0.12600
H321        H  0.27103790  0.31859362  0.54515529     0.12610
C322        C  0.31686408  0.39156084  0.55547410     0.62140
F323        F  0.36459194  0.27724793  0.89087092    -0.23030
F324        F  0.29647636  0.26124544  0.89833079    -0.20360
F325        F  0.34625522  0.22285821  0.43248926    -0.20030
F326        F  0.30557236  0.42940430  0.03630846    -0.20090
F327        F  0.35453155  0.39700382  0.57760094    -0.20410
F328        F  0.28505743  0.38107250  0.58416991    -0.23080
C329        C  0.37435486  0.18382800  0.01528148    -0.05920
C330        C  0.35967792  0.14178267  0.01079803     0.00010
C331        C  0.31493587  0.13454157  0.51676447    -0.08570
C332        C  0.28723660  0.17019536  0.51914689    -0.05940
C333        C  0.30199148  0.21241897  0.01470091    -0.00010
C334        C  0.34629700  0.21755913  0.02398605    -0.08470
C335        C  0.36296323  0.25051827  0.05553721     0.61900
H336        H  0.40834109  0.19017443  0.01746739     0.12600
H337        H  0.25476400  0.16449149  0.52770734     0.12610
C338        C  0.29585214  0.09026813  0.52200705     0.62140
F339        F  0.38928384  0.23085583  0.58473921    -0.23030
F340        F  0.33014280  0.26916693  0.57865317    -0.20360
F341        F  0.38681040  0.28098203  0.03496852    -0.20030
F342        F  0.31534687  0.07003206  0.55578898    -0.20090
F343        F  0.30122890  0.06657844  0.98502325    -0.20410
F344        F  0.25247843  0.09171611  0.03061734    -0.23080
C345        C  0.18301004  0.35823597  0.49630076    -0.05920
C346        C  0.13911452  0.34933720  0.49255921     0.00010
C347        C  0.12725500  0.30822843  0.97580971    -0.08570
C348        C  0.15971898  0.27934072  0.96354256    -0.05940
C349        C  0.20332834  0.28712203  0.47174787    -0.00010
C350        C  0.21349299  0.33107063  0.47711156    -0.08470
C351        C  0.23708259  0.35434778  0.44207471     0.61900
H352        H  0.19276553  0.39047697  0.50438753     0.12600
H353        H  0.15073196  0.24850107  0.95082404     0.12610
C354        C  0.08116837  0.29283516  0.97245302     0.62140
F355        F  0.20760646  0.37508669  0.41684056    -0.23030
F356        F  0.25953990  0.32728518  0.91579772    -0.20360
F357        F  0.26438256  0.38463023  0.45908875    -0.20030
F358        F  0.05894274  0.31758116  0.94406243    -0.20090
F359        F  0.06188585  0.29468501  0.51221013    -0.20410
F360        F  0.07821572  0.25105563  0.95805686    -0.23080
C361        C  0.17558099  0.20965425  0.02451188    -0.05920
C362        C  0.20565960  0.20793988  0.99113154     0.00010
C363        C  0.20496365  0.17162990  0.46311076    -0.08570
C364        C  0.17517690  0.13891577  0.47037555    -0.05940
C365        C  0.14348193  0.14248358  0.00164891    -0.00010
C366        C  0.14241480  0.17958412  0.02801200    -0.08470
C367        C  0.10545363  0.18911622  0.05801896     0.61900
H368        H  0.17581113  0.23752685  0.04521676     0.12600
H369        H  0.17532828  0.11097918  0.44966362     0.12610
C370        C  0.23461322  0.16449276  0.42568434     0.62140
F371        F  0.11308312  0.22486882  0.08305887    -0.23030
F372        F  0.09871310  0.15516246  0.58465098    -0.20360
F373        F  0.06877820  0.19670083  0.03471138    -0.20030
F374        F  0.25542433  0.12588142  0.42998183    -0.20090
F375        F  0.26513365  0.19541873  0.92269032    -0.20410
F376        F  0.21124486  0.16363975  0.88830970    -0.23080
C377        C  0.33182307  0.02742964  0.85609717    -0.05920
C378        C  0.37026019  0.50463184  0.84990872     0.00010
C379        C  0.37737932  0.48615408  0.80840773    -0.08570
C380        C  0.34160600  0.47924557  0.78270939    -0.05940
C381        C  0.30418496  0.50349987  0.78742206    -0.00010
C382        C  0.30192520  0.03217117  0.82280320    -0.08470
C383        C  0.27372285  0.07134503  0.82486571     0.61900
H384        H  0.32753377  0.04584652  0.88527963     0.12600
H385        H  0.34534163  0.45919179  0.75454448     0.12610
C386        C  0.41944203  0.47975085  0.78394894     0.62140
F387        F  0.29852581  0.10659851  0.83478794    -0.23030
F388        F  0.24346976  0.56672541  0.85659545    -0.20360
F389        F  0.25404485  0.07950981  0.78640503    -0.20030
F390        F  0.42175054  0.43862476  0.76777043    -0.20090
F391        F  0.45630690  0.98799702  0.80614782    -0.20410
F392        F  0.41933533  0.50702587  0.74955239    -0.23080
C393        C  0.18270073  0.47372521  0.86545509    -0.05920
C394        C  0.15112358  0.50540128  0.86604431     0.00010
C395        C  0.15082089  0.03664862  0.83408416    -0.08570
C396        C  0.17850620  0.03171009  0.79938602    -0.05940
C397        C  0.20813939  0.49804940  0.79648825    -0.00010
C398        C  0.21135142  0.46898577  0.83107044    -0.08470
C399        C  0.24108605  0.43080633  0.83320960     0.61900
H400        H  0.18324901  0.45072585  0.89099592     0.12600
H401        H  0.17656998  0.05407187  0.77336144     0.12610
C402        C  0.12182201  0.07535796  0.83657966     0.62140
F403        F  0.26750437  0.43525587  0.86833833    -0.23030
F404        F  0.26626349  0.92524846  0.79778036    -0.20360
F405        F  0.21707580  0.39414024  0.83756526    -0.20030
F406        F  0.12378892  0.09358832  0.87692272    -0.20090
F407        F  0.08050237  0.56359375  0.82812427    -0.20410
F408        F  0.13349089  0.10610466  0.80743824    -0.23080
C409        C  0.13631166  0.46747106  0.67876909    -0.05920
C410        C  0.14282874  0.99663340  0.64622821     0.00010
C411        C  0.17893206  0.02385158  0.64777683    -0.08570
C412        C  0.20520112  0.02293869  0.68413368    -0.05940
C413        C  0.20026725  0.99217983  0.71620479    -0.00010
C414        C  0.16475835  0.46349086  0.71308735    -0.08470
C415        C  0.15461895  0.42909237  0.74546223     0.61900
H416        H  0.10836513  0.44714824  0.67679237     0.12600
H417        H  0.22985700  0.04676859  0.68773919     0.12610
C418        C  0.19027783  0.05342645  0.61137106     0.62140
F419        F  0.12671178  0.39883043  0.72901290    -0.23030
F420        F  0.13539352  0.94690285  0.78099221    -0.20360
F421        F  0.19103878  0.40765250  0.75705436    -0.20030
F422        F  0.15585061  0.07889081  0.60122182    -0.20090
F423        F  0.20184687  0.52946344  0.57593125    -0.20410
F424        F  0.22432599  0.07981658  0.62155449    -0.23080
C425        C  0.32565440  0.47682847  0.64079207    -0.05920
C426        C  0.35579020  0.00948365  0.63915970     0.00010
C427        C  0.35387462  0.04256022  0.67007973    -0.08570
C428        C  0.32283200  0.04023309  0.70259537    -0.05940
C429        C  0.29626220  0.00425224  0.70753061     0.00050
C430        C  0.29840193  0.47139312  0.67591660    -0.08470
C431        C  0.27630887  0.42850299  0.67825607     0.61900
H432        H  0.32614530  0.45289558  0.61620547     0.12600
H433        H  0.32123820  0.06525126  0.72662278     0.12610
C434        C  0.38432229  0.08009816  0.66878343     0.62140
F435        F  0.30516092  0.89628114  0.66852954    -0.23030
F436        F  0.24319103  0.92703357  0.64913360    -0.20360
F437        F  0.26058455  0.41988567  0.71794709    -0.20030
F438        F  0.38269165  0.09868200  0.62901578    -0.20090
F439        F  0.42557042  0.56651571  0.67676719    -0.20410
F440        F  0.37413760  0.61081384  0.69915095    -0.23080
C441        C  0.98220788  0.16980797  0.78968448    -0.05920
C442        C  0.48934890  0.21190341  0.80419211     0.00010
C443        C  0.48860882  0.21708846  0.84935549    -0.08570
C444        C  0.50206719  0.18346076  0.87480223    -0.05940
C445        C  0.49843389  0.14122437  0.86037218    -0.00010
C446        C  0.98473571  0.13440170  0.81724611    -0.08470
C447        C  0.96966270  0.09130465  0.80059286     0.61900
H448        H  0.97118062  0.16417864  0.75791473     0.12600
H449        H  0.50719661  0.19013910  0.90841755     0.12610
C450        C  0.45688431  0.24680944  0.87094573     0.62140
F451        F  0.95260652  0.09369197  0.75996300    -0.23030
F452        F  0.50324471  0.06291792  0.79871622    -0.20360
F453        F  0.93802230  0.07601177  0.82709872    -0.20030
F454        F  0.42699664  0.26088899  0.84196792    -0.20090
F455        F  0.97774412  0.28062702  0.89002397    -0.20410
F456        F  0.43443924  0.22562542  0.90244620    -0.23080
C457        C  0.04408780  0.33593202  0.84957216    -0.05920
C458        C  0.50761415  0.36116754  0.85580312     0.00010
C459        C  0.47076747  0.35346807  0.83099866    -0.08570
C460        C  0.47160068  0.32049586  0.80054127    -0.05940
C461        C  0.50605183  0.29192491  0.79752110    -0.00010
C462        C  0.04332189  0.29983919  0.82251223    -0.08470
C463        C  0.08177715  0.27033951  0.82481639     0.61900
H464        H  0.07237880  0.34256132  0.86845441     0.12600
H465        H  0.44235212  0.31251222  0.78416679     0.12610
C466        C  0.42850273  0.37446192  0.84195853     0.62140
F467        F  0.11790807  0.29217435  0.81206449    -0.23030
F468        F  0.07797591  0.23406425  0.79982833    -0.20360
F469        F  0.08736451  0.25759564  0.86654200    -0.20030
F470        F  0.43332579  0.41769781  0.84635798    -0.20090
F471        F  0.41434199  0.35904679  0.88024166    -0.20410
F472        F  0.39748470  0.36649629  0.81140973    -0.23080
C473        C  0.46790093  0.31509853  0.69896355    -0.05920
C474        C  0.50485898  0.29034916  0.70473517     0.00010
C475        C  0.04206342  0.30126143  0.68088037    -0.08570
C476        C  0.03974322  0.33436089  0.65072054    -0.05940
C477        C  0.50184573  0.35689145  0.64358110    -0.00010
C478        C  0.46536367  0.34730365  0.66820039    -0.08470
C479        C  0.42265797  0.36766909  0.65846625     0.61900
H480        H  0.43931448  0.30647314  0.71587719     0.12600
H481        H  0.06744258  0.34217606  0.63155169     0.12610
C482        C  0.08404604  0.27782867  0.68550294     0.62140
F483        F  0.39040119  0.35312561  0.68483672    -0.23030
F484        F  0.41197235  0.35748330  0.61688045    -0.20360
F485        F  0.42513046  0.41143491  0.66328074    -0.20030
F486        F  0.08299098  0.24067136  0.66167410    -0.20090
F487        F  0.09158542  0.26844486  0.72758856    -0.20410
F488        F  0.11803962  0.30220722  0.67141538    -0.23080
C489        C  0.46608242  0.16720994  0.64747602    -0.05920
C490        C  0.50110075  0.13948353  0.64702531     0.00010
C491        C  0.03369478  0.14465283  0.67804654    -0.08570
C492        C  0.03294048  0.18129475  0.70452122    -0.05940
C493        C  0.49841387  0.21002024  0.70392244    -0.00010
C494        C  0.46262436  0.20037064  0.67767560    -0.08470
C495        C  0.41949953  0.22182064  0.68319406     0.61900
H496        H  0.44034492  0.16175118  0.62493916     0.12600
H497        H  0.05875101  0.18733062  0.72674599     0.12610
C498        C  0.06831949  0.11138240  0.68395615     0.62140
F499        F  0.38675174  0.19435625  0.67172644    -0.23030
F500        F  0.41712149  0.25706588  0.65747137    -0.20360
F501        F  0.41265927  0.23358821  0.72530836    -0.20030
F502        F  0.08812998  0.10234474  0.64565718    -0.20090
F503        F  0.05019546  0.07443599  0.69934047    -0.20410
F504        F  0.09926975  0.12485136  0.71261768    -0.23080
C505        C  0.50079313  0.74980211  0.23053256     0.00420
C506        C  0.99791457  0.75038748  0.27485107     0.00420
O507        O  0.50161738  0.61870841  0.07424992    -0.86630
O508        O  0.50149248  0.87753871  0.07054912    -0.86790
O509        O  0.42921734  0.50463064  0.12001803    -0.88460
O510        O  0.07064273  0.49778077  0.12315950    -0.87220
O511        O  0.12432545  0.49721399  0.07321363    -0.86810
O512        O  0.37861176  0.50340533  0.06690014    -0.88180
O513        O  0.50016840  0.92929474  0.12299871    -0.86660
O514        O  0.50248335  0.56679459  0.12533551    -0.86240
Zr515      Zr  0.50048254  0.49834111  0.08791507     2.84310
O516        O  0.04416600  0.95479200  0.04545732    -1.08220
O517        O  0.45854937  0.54116087  0.04381770    -1.08950
C518        C  0.50217048  0.60602042  0.11341538     1.06480
C519        C  0.50110225  0.89006028  0.11010880     1.06420
C520        C  0.39018054  0.50617437  0.10647300     1.09400
C521        C  0.11054097  0.49772161  0.11186466     1.07180
H522        H  0.43806791  0.93870732  0.06043722     0.32740
O523        O  0.45667391  0.95614848  0.04329323    -1.29170
H524        H  0.06278408  0.55879130  0.06495448     0.32420
O525        O  0.04529430  0.54109268  0.04660471    -1.30850
O526        O  0.50340876  0.88020113  0.42909940    -0.86620
O527        O  0.50123978  0.61879175  0.43315157    -0.88120
O528        O  0.37924701  0.93137299  0.99488963    -0.86700
O529        O  0.12182453  0.92455336  0.00074120    -0.86750
O530        O  0.12355147  0.56880688  0.50390715    -0.86460
O531        O  0.38045160  0.56852910  0.50153145    -0.86270
O532        O  0.44042627  0.00109340  0.37827104    -0.86640
O533        O  0.07830337  0.00377582  0.38541013    -0.86100
O534        O  0.38492909  0.00249165  0.42533444    -0.87160
O535        O  0.12906313  0.99999180  0.43792775    -0.86320
O536        O  0.43038963  0.87894859  0.99619028    -0.86720
O537        O  0.43258374  0.61906395  0.50686300    -0.86440
O538        O  0.07134358  0.62026936  0.50331391    -0.86090
O539        O  0.06804358  0.87535759  0.00132498    -0.86500
O540        O  0.51019458  0.93256083  0.37886708    -0.86800
O541        O  0.50571736  0.56807274  0.38059120    -0.88140
Zr542      Zr  0.50074163  0.91291221  0.00071595     2.83100
Zr543      Zr  0.50274562  0.58470141  0.50342011     2.83500
Zr544      Zr  0.41583128  0.49966563  0.49807364     2.84090
Zr545      Zr  0.08983114  0.99738522  0.00447314     2.83360
Zr546      Zr  0.50702011  0.00008008  0.41676922     2.84220
O547        O  0.04864174  0.54237708  0.46166682    -1.08710
O548        O  0.46061384  0.95667374  0.45600355    -1.08210
C549        C  0.50742970  0.89338030  0.39029305     1.06450
C550        C  0.50226618  0.60703685  0.39331256     1.09070
C551        C  0.39117846  0.89203016  0.99470019     1.06630
C552        C  0.10776351  0.88542760  0.99937198     1.06980
C553        C  0.11068410  0.60820619  0.50358058     1.06570
C554        C  0.39285973  0.60741918  0.50596623     1.06120
C555        C  0.40047530  0.00235781  0.38683236     1.06550
C556        C  0.11734019  0.00330152  0.39872697     1.06060
H557        H  0.44384190  0.56089841  0.43990940     0.32740
O558        O  0.46102640  0.54286873  0.45782529    -1.29810
H559        H  0.06520604  0.93749075  0.44205647     0.32760
O560        O  0.04711974  0.95515036  0.45989043    -1.31190
C561        C  0.27364647  0.50095728  0.25008791     0.00420
C562        C  0.23015966  0.49397416  0.25430282     0.00420
C563        C  0.23160352  0.74808382  0.48447835     0.00420
C564        C  0.27484550  0.74968746  0.99648412     0.00420
C565        C  0.36100598  0.82709545  0.46126616    -0.05920
C566        C  0.35733214  0.85906997  0.99247967     0.00010
C567        C  0.32317067  0.85733610  0.02202247    -0.08570
C568        C  0.29563741  0.82198551  0.02105767    -0.05940
C569        C  0.29960158  0.78973736  0.98998818    -0.00010
C570        C  0.33154830  0.79345933  0.45793181    -0.08470
C571        C  0.33476999  0.76317858  0.41985955     0.61900
H572        H  0.38823723  0.82778765  0.44039145     0.12600
H573        H  0.27108734  0.81859305  0.04518727     0.12610
C574        C  0.31690004  0.89157186  0.05550428     0.62140
F575        F  0.36463397  0.77717844  0.39088716    -0.23030
F576        F  0.29650461  0.76122143  0.39829626    -0.20360
F577        F  0.34628366  0.72290882  0.93246747    -0.20030
F578        F  0.30556219  0.92938700  0.53627157    -0.20090
F579        F  0.35457596  0.89704466  0.07761110    -0.20410
F580        F  0.28511859  0.88106168  0.08421937    -0.23080
C581        C  0.37432821  0.68380464  0.51530854    -0.05920
C582        C  0.35965924  0.64175945  0.51079095     0.00010
C583        C  0.31498584  0.63456553  0.01677837    -0.08570
C584        C  0.28728865  0.67022094  0.01915884    -0.05940
C585        C  0.30196081  0.71239057  0.51467758    -0.00010
C586        C  0.34625877  0.71753181  0.52399740    -0.08470
C587        C  0.36289637  0.75049315  0.55556036     0.61900
H588        H  0.40831209  0.69015212  0.51752808     0.12600
H589        H  0.25481702  0.66452112  0.02772667     0.12610
C590        C  0.29590245  0.59029527  0.02204358     0.62140
F591        F  0.38940225  0.73088664  0.08466230    -0.23030
F592        F  0.33024408  0.76918192  0.07863799    -0.20360
F593        F  0.38675563  0.78095988  0.53500930    -0.20030
F594        F  0.31540917  0.57007021  0.05582534    -0.20090
F595        F  0.30123826  0.56656454  0.48492685    -0.20410
F596        F  0.25244579  0.59167097  0.53049371    -0.23080
C597        C  0.18301927  0.85824553  0.99635024    -0.05920
C598        C  0.13912438  0.84934929  0.99258936     0.00010
C599        C  0.12723508  0.80822628  0.47580429    -0.08570
C600        C  0.15969397  0.77933566  0.46353146    -0.05940
C601        C  0.20334951  0.78713595  0.97178935    -0.00010
C602        C  0.21350745  0.83108610  0.97715897    -0.08470
C603        C  0.23709029  0.85437094  0.94212232     0.61900
H604        H  0.19277181  0.89048552  0.00444500     0.12600
H605        H  0.15070113  0.74849549  0.45081866     0.12610
C606        C  0.08114696  0.79283210  0.47246511     0.62140
F607        F  0.20761124  0.87512960  0.91690797    -0.23030
F608        F  0.25953710  0.82724082  0.41577044    -0.20360
F609        F  0.26440501  0.88463910  0.95913700    -0.20030
F610        F  0.05891144  0.81757314  0.44407769    -0.20090
F611        F  0.06188054  0.79469820  0.01219472    -0.20410
F612        F  0.07818942  0.75105058  0.45807588    -0.23080
C613        C  0.17556204  0.70965235  0.52450475    -0.05920
C614        C  0.20563101  0.70793580  0.49111585     0.00010
C615        C  0.20501142  0.67164152  0.96310015    -0.08570
C616        C  0.17521066  0.63893213  0.97033722    -0.05940
C617        C  0.14346727  0.64247466  0.50166084    -0.00010
C618        C  0.14239833  0.67958134  0.52801519    -0.08470
C619        C  0.10543770  0.68911897  0.55802154     0.61900
H620        H  0.17579609  0.73752686  0.54520700     0.12600
H621        H  0.17534943  0.61101181  0.94960123     0.12610
C622        C  0.23467648  0.66450949  0.92568516     0.62140
F623        F  0.11306552  0.72487850  0.58305248    -0.23030
F624        F  0.09874516  0.65512202  0.08461749    -0.20360
F625        F  0.06876094  0.69669559  0.53471317    -0.20030
F626        F  0.25547078  0.62588795  0.92997613    -0.20090
F627        F  0.26505439  0.69544025  0.42262775    -0.20410
F628        F  0.21116022  0.66362556  0.38829044    -0.23080
C629        C  0.33182322  0.52745416  0.35609772    -0.05920
C630        C  0.37026317  0.00466305  0.34988525     0.00010
C631        C  0.37736053  0.98618430  0.30838156    -0.08570
C632        C  0.34157639  0.97930353  0.28268786    -0.05940
C633        C  0.30417024  0.00358001  0.28741339    -0.00010
C634        C  0.30193837  0.53222924  0.32279906    -0.08470
C635        C  0.27376303  0.57142151  0.32487033     0.61900
H636        H  0.32754239  0.54586783  0.38528355     0.12600
H637        H  0.34529305  0.95925168  0.25451919     0.12610
C638        C  0.41941559  0.97975420  0.28391889     0.62140
F639        F  0.29859134  0.60665640  0.33479565    -0.23030
F640        F  0.24354459  0.06688244  0.35660424    -0.20360
F641        F  0.25408572  0.57960515  0.28641353    -0.20030
F642        F  0.42170055  0.93862249  0.26775162    -0.20090
F643        F  0.45629552  0.48787290  0.30618392    -0.20410
F644        F  0.41931776  0.00702072  0.24951533    -0.23080
C645        C  0.18268407  0.97378273  0.36547551    -0.05920
C646        C  0.15115815  0.00550796  0.36612732     0.00010
C647        C  0.15087761  0.53675326  0.33415293    -0.08570
C648        C  0.17853929  0.53181822  0.29943332    -0.05940
C649        C  0.20813432  0.99818025  0.29653967    -0.00010
C650        C  0.21133095  0.96906987  0.33108466    -0.08470
C651        C  0.24104476  0.93087075  0.33317551     0.61900
H652        H  0.18319876  0.95073459  0.39097328     0.12600
H653        H  0.17661301  0.55420499  0.27342965     0.12610
C654        C  0.12197045  0.57552561  0.33674530     0.62140
F655        F  0.26748220  0.93527679  0.36829464    -0.23030
F656        F  0.26625654  0.42532070  0.29773837    -0.20360
F657        F  0.21701834  0.89421271  0.33751438    -0.20030
F658        F  0.12408182  0.59371838  0.37709683    -0.20090
F659        F  0.08069253  0.06413680  0.32867909    -0.20410
F660        F  0.13363694  0.60626787  0.30759816    -0.23080
C661        C  0.13625928  0.96761978  0.17880199    -0.05920
C662        C  0.14285779  0.49669597  0.14619755     0.00010
C663        C  0.17895175  0.52392476  0.14775444    -0.08570
C664        C  0.20520229  0.52303358  0.18412623    -0.05940
C665        C  0.20025469  0.49229039  0.21621098    -0.00010
C666        C  0.16467559  0.96366774  0.21314679    -0.08470
C667        C  0.15449397  0.92930459  0.24554750     0.61900
H668        H  0.10831134  0.94729990  0.17681945     0.12600
H669        H  0.22985840  0.54686379  0.18772994     0.12610
C670        C  0.19030756  0.55348494  0.11134069     0.62140
F671        F  0.12651370  0.89908556  0.22914408    -0.23030
F672        F  0.13538136  0.44706481  0.28101219    -0.20360
F673        F  0.19088287  0.90780127  0.25711559    -0.20030
F674        F  0.15588012  0.57893831  0.10116520    -0.20090
F675        F  0.20185321  0.02955173  0.07596184    -0.20410
F676        F  0.22434662  0.57988548  0.12152757    -0.23080
C677        C  0.32560933  0.97687801  0.14079434    -0.05920
C678        C  0.35583145  0.50951969  0.13917577     0.00010
C679        C  0.35391183  0.54260669  0.17008383    -0.08570
C680        C  0.32285154  0.54030180  0.20258609    -0.05940
C681        C  0.29626155  0.50433439  0.20751888     0.00050
C682        C  0.29833575  0.97147277  0.17591097    -0.08470
C683        C  0.27619848  0.92860488  0.17823568     0.61900
H684        H  0.32609846  0.95293221  0.11621770     0.12600
H685        H  0.32125954  0.56532576  0.22660759     0.12610
C686        C  0.38437309  0.58013309  0.16878691     0.62140
F687        F  0.30512820  0.39635074  0.16856426    -0.23030
F688        F  0.24320086  0.42713012  0.14907429    -0.20360
F689        F  0.26036328  0.92003050  0.21789158    -0.20030
F690        F  0.38276561  0.59870363  0.12901188    -0.20090
F691        F  0.42556346  0.06651787  0.17676826    -0.20410
F692        F  0.37415528  0.11084705  0.19914179    -0.23080
C693        C  0.98229008  0.66979175  0.28967340    -0.05920
C694        C  0.48934961  0.71191263  0.30420581     0.00010
C695        C  0.48867916  0.71709574  0.34937007    -0.08570
C696        C  0.50214248  0.68344911  0.37478859    -0.05940
C697        C  0.49839508  0.64121995  0.36036715    -0.00010
C698        C  0.98482365  0.63438612  0.31723592    -0.08470
C699        C  0.96981700  0.59127429  0.30055814     0.61900
H700        H  0.97129186  0.66415225  0.25789672     0.12600
H701        H  0.50734710  0.69011707  0.40839433     0.12610
C702        C  0.45697190  0.74680934  0.37099853     0.62140
F703        F  0.95283305  0.59364247  0.25989687    -0.23030
F704        F  0.50284442  0.56290404  0.29866916    -0.20360
F705        F  0.93814068  0.57595947  0.32700871    -0.20030
F706        F  0.42706157  0.76089788  0.34204886    -0.20090
F707        F  0.97769646  0.78061862  0.39000194    -0.20410
F708        F  0.43455194  0.72561761  0.40251217    -0.23080
C709        C  0.04408158  0.83593206  0.34958469    -0.05920
C710        C  0.50761508  0.86117443  0.35580118     0.00010
C711        C  0.47076357  0.85346663  0.33100677    -0.08570
C712        C  0.47159618  0.82049551  0.30054786    -0.05940
C713        C  0.50605331  0.79193225  0.29751982    -0.00010
C714        C  0.04332394  0.79984047  0.32252292    -0.08470
C715        C  0.08178357  0.77034664  0.32483040     0.61900
H716        H  0.07236935  0.84256367  0.36847111     0.12600
H717        H  0.44234567  0.81250584  0.28417874     0.12610
C718        C  0.42850244  0.87446722  0.34196793     0.62140
F719        F  0.11791327  0.79218928  0.31208826    -0.23030
F720        F  0.07799356  0.73407409  0.29983663    -0.20360
F721        F  0.08736508  0.75759825  0.36655537    -0.20030
F722        F  0.43332974  0.91770601  0.34632991    -0.20090
F723        F  0.41435651  0.85908416  0.38027066    -0.20410
F724        F  0.39747205  0.86647820  0.31143753    -0.23080
C725        C  0.46789222  0.81508992  0.19896552    -0.05920
C726        C  0.50485050  0.79033884  0.20473347     0.00010
C727        C  0.04207471  0.80129598  0.18089414    -0.08570
C728        C  0.03975087  0.83439812  0.15073723    -0.05940
C729        C  0.50183837  0.85689764  0.14359313    -0.00010
C730        C  0.46535188  0.84729335  0.16819944    -0.08470
C731        C  0.42263886  0.86763205  0.15844137     0.61900
H732        H  0.43930645  0.80646281  0.21587993     0.12600
H733        H  0.06745341  0.84222609  0.13157827     0.12610
C734        C  0.08406385  0.77787605  0.18552120     0.62140
F735        F  0.39038042  0.85308414  0.18480743    -0.23030
F736        F  0.41197314  0.85741945  0.11685621    -0.20360
F737        F  0.42508625  0.91140136  0.16323493    -0.20030
F738        F  0.08303068  0.74073050  0.16167256    -0.20090
F739        F  0.09159136  0.76847293  0.22760431    -0.20410
F740        F  0.11805354  0.80227482  0.17145918    -0.23080
C741        C  0.46613364  0.66721281  0.14745532    -0.05920
C742        C  0.50114552  0.63947809  0.14703259     0.00010
C743        C  0.03373865  0.64467541  0.17802375    -0.08570
C744        C  0.03298259  0.68132109  0.20449410    -0.05940
C745        C  0.49841578  0.71000103  0.20394589    -0.00010
C746        C  0.46265243  0.70036632  0.17765918    -0.08470
C747        C  0.41952438  0.72181700  0.18314611     0.61900
H748        H  0.44041635  0.66176524  0.12489271     0.12600
H749        H  0.05879419  0.68736211  0.22671627     0.12610
C750        C  0.06835882  0.61140227  0.18394514     0.62140
F751        F  0.38678471  0.69435399  0.17165204    -0.23030
F752        F  0.41716617  0.75706328  0.15742364    -0.20360
F753        F  0.41265300  0.73358193  0.22525616    -0.20030
F754        F  0.08817431  0.60235285  0.14565176    -0.20090
F755        F  0.05022749  0.57446152  0.19933451    -0.20410
F756        F  0.09930607  0.62487318  0.21260921    -0.23080
C757        C  0.50079715  0.74979082  0.73053183     0.00420
C758        C  0.99788817  0.75038422  0.77486193     0.00420
O759        O  0.50158774  0.61871363  0.57421361    -0.86630
O760        O  0.50148993  0.87752186  0.57054833    -0.86790
O761        O  0.42920717  0.50462914  0.61999799    -0.88460
O762        O  0.07062618  0.49777816  0.62317942    -0.87220
O763        O  0.12430595  0.49721518  0.57323065    -0.86810
O764        O  0.37859126  0.50339681  0.56689016    -0.88180
O765        O  0.50014647  0.92927311  0.62300239    -0.86660
O766        O  0.50246107  0.56680287  0.62530181    -0.86240
Zr767      Zr  0.50046645  0.49834499  0.58788831     2.84310
O768        O  0.04415864  0.95476481  0.54546588    -1.08220
O769        O  0.45852093  0.54115516  0.54379465    -1.08950
C770        C  0.50214670  0.60602823  0.61337996     1.06480
C771        C  0.50108977  0.89004067  0.61010927     1.06420
C772        C  0.39016848  0.50616989  0.60645980     1.09400
C773        C  0.11052503  0.49772102  0.61188335     1.07180
H774        H  0.43805698  0.93868146  0.56043462     0.32740
O775        O  0.45666538  0.95612640  0.54329538    -1.29170
H776        H  0.06275810  0.55879148  0.56496683     0.32420
O777        O  0.04526939  0.54109199  0.54661685    -1.30850
O778        O  0.50341862  0.88019480  0.92911038    -0.86620
O779        O  0.50130218  0.61880645  0.93318762    -0.88120
O780        O  0.37925222  0.93134036  0.49486442    -0.86700
O781        O  0.12182312  0.92453983  0.50071761    -0.86750
O782        O  0.12358175  0.56880425  0.00389547    -0.86460
O783        O  0.38048620  0.56854293  0.00152904    -0.86270
O784        O  0.44039583  0.00106798  0.87828282    -0.86640
O785        O  0.07824839  0.00368472  0.88536668    -0.86100
O786        O  0.38490679  0.00250989  0.92535277    -0.87160
O787        O  0.12903069  0.99992032  0.93786209    -0.86320
O788        O  0.43039402  0.87891702  0.49617724    -0.86720
O789        O  0.43262365  0.61907097  0.00687744    -0.86440
O790        O  0.07137589  0.62026835  0.00330098    -0.86090
O791        O  0.06804640  0.87534037  0.50130713    -0.86500
O792        O  0.51018060  0.93254919  0.87887008    -0.86800
O793        O  0.50575103  0.56807976  0.88063688    -0.88140
Zr794      Zr  0.50073884  0.91289782  0.50071416     2.83100
Zr795      Zr  0.50278598  0.58470654  0.00345324     2.83500
Zr796      Zr  0.41586342  0.49967817  0.99808627     2.84090
Zr797      Zr  0.08982575  0.99736750  0.50450017     2.83360
Zr798      Zr  0.50700084  0.00008138  0.91675687     2.84220
O799        O  0.04866491  0.54237943  0.96165123    -1.08710
O800        O  0.46060422  0.95668224  0.95600790    -1.08210
C801        C  0.50743035  0.89336837  0.89030115     1.06450
C802        C  0.50231742  0.60704542  0.89334982     1.09070
C803        C  0.39118221  0.89199590  0.49467772     1.06630
C804        C  0.10776432  0.88541360  0.49934141     1.06980
C805        C  0.11071659  0.60820451  0.00357042     1.06570
C806        C  0.39289815  0.60743137  0.00596673     1.06120
C807        C  0.40044731  0.00235135  0.88684898     1.06550
C808        C  0.11728923  0.00318969  0.89866064     1.06060
H809        H  0.44389030  0.56090940  0.93993172     0.32740
O810        O  0.46107111  0.54287784  0.95784914    -1.29810
H811        H  0.06518474  0.93750250  0.94205571     0.32760
O812        O  0.04710284  0.95517021  0.95988520    -1.31190
C813        C  0.27367171  0.50093744  0.75009335     0.00420
C814        C  0.23018371  0.49395441  0.75430287     0.00420
C815        C  0.23162995  0.74810105  0.98451737     0.00420
C816        C  0.27481507  0.74966540  0.49645855     0.00420
C817        C  0.36098340  0.82715996  0.96126427    -0.05920
C818        C  0.35733325  0.85903172  0.49245317     0.00010
C819        C  0.32314587  0.85731987  0.52196907    -0.08570
C820        C  0.29560492  0.82197510  0.52100399    -0.05940
C821        C  0.29958484  0.78970783  0.48995744    -0.00010
C822        C  0.33153618  0.79351588  0.95793688    -0.08470
C823        C  0.33474187  0.76325338  0.91984851     0.61900
H824        H  0.38819145  0.82787969  0.94036049     0.12600
H825        H  0.27103782  0.81860051  0.54511907     0.12610
C826        C  0.31687409  0.89155919  0.55544407     0.62140
F827        F  0.36457999  0.77727666  0.89085865    -0.23030
F828        F  0.29646018  0.76128869  0.89831387    -0.20360
F829        F  0.34628597  0.72283414  0.43250148    -0.20030
F830        F  0.30554873  0.92939055  0.03633668    -0.20090
F831        F  0.35454297  0.89699727  0.57756999    -0.20410
F832        F  0.28506692  0.88107271  0.58414027    -0.23080
C833        C  0.37437477  0.68382329  0.01525170    -0.05920
C834        C  0.35970071  0.64177633  0.01077831     0.00010
C835        C  0.31494118  0.63454224  0.51675829    -0.08570
C836        C  0.28724078  0.67019477  0.51913390    -0.05940
C837        C  0.30200869  0.71241390  0.01467984    -0.00010
C838        C  0.34631657  0.71755460  0.02395757    -0.08470
C839        C  0.36298528  0.75051024  0.05551170     0.61900
H840        H  0.40836101  0.69017135  0.01743250     0.12600
H841        H  0.25476659  0.66448856  0.52768537     0.12610
C842        C  0.29585695  0.59026844  0.52199690     0.62140
F843        F  0.38927118  0.73086988  0.58474792    -0.23030
F844        F  0.33013211  0.76918012  0.57864146    -0.20360
F845        F  0.38681234  0.78098866  0.03494212    -0.20030
F846        F  0.31534520  0.57003258  0.55578288    -0.20090
F847        F  0.30126130  0.56657826  0.98497865    -0.20410
F848        F  0.25249630  0.59170381  0.03056432    -0.23080
C849        C  0.18302011  0.85824248  0.49625078    -0.05920
C850        C  0.13912300  0.84933918  0.49253344     0.00010
C851        C  0.12724704  0.80824060  0.97584270    -0.08570
C852        C  0.15971331  0.77935193  0.96358211    -0.05940
C853        C  0.20333258  0.78711600  0.47172665    -0.00010
C854        C  0.21349970  0.83106596  0.47707045    -0.08470
C855        C  0.23709970  0.85432314  0.44202775     0.61900
H856        H  0.19277768  0.89048710  0.50431955     0.12600
H857        H  0.15072730  0.74851337  0.95086037     0.12610
C858        C  0.08116074  0.79284937  0.97247363     0.62140
F859        F  0.20763203  0.87506051  0.41678268    -0.23030
F860        F  0.25951371  0.82730931  0.91583160    -0.20360
F861        F  0.26440642  0.88460428  0.45903302    -0.20030
F862        F  0.05894318  0.81759853  0.94407978    -0.20090
F863        F  0.06188928  0.79468840  0.51219687    -0.20410
F864        F  0.07820971  0.75107119  0.95807320    -0.23080
C865        C  0.17559026  0.70964932  0.02452769    -0.05920
C866        C  0.20566510  0.70794389  0.99114361     0.00010
C867        C  0.20496674  0.67163128  0.46307666    -0.08570
C868        C  0.17516579  0.63892630  0.47032582    -0.05940
C869        C  0.14350201  0.64247409  0.00166315    -0.00010
C870        C  0.14242660  0.67957627  0.02802399    -0.08470
C871        C  0.10545720  0.68910936  0.05802060     0.61900
H872        H  0.17581768  0.73751954  0.04523585     0.12600
H873        H  0.17529843  0.61100236  0.44959486     0.12610
C874        C  0.23462532  0.66449061  0.42565827     0.62140
F875        F  0.11308010  0.72486077  0.08306476    -0.23030
F876        F  0.09873833  0.65513844  0.58463082    -0.20360
F877        F  0.06878943  0.69669614  0.03470163    -0.20030
F878        F  0.25541083  0.62586436  0.42994869    -0.20090
F879        F  0.26509798  0.69546668  0.92265934    -0.20410
F880        F  0.21121637  0.66364032  0.88831421    -0.23080
C881        C  0.33185736  0.52744386  0.85610472    -0.05920
C882        C  0.37023492  0.00463195  0.84990192     0.00010
C883        C  0.37735433  0.98614701  0.80840586    -0.08570
C884        C  0.34157804  0.97919703  0.78272534    -0.05940
C885        C  0.30415251  0.00344423  0.78742890    -0.00010
C886        C  0.30196556  0.53221071  0.82280949    -0.08470
C887        C  0.27378020  0.57139551  0.82488712     0.61900
H888        H  0.32757241  0.54585393  0.88529218     0.12600
H889        H  0.34531883  0.95913407  0.75456754     0.12610
C890        C  0.41941112  0.97982313  0.78391973     0.62140
F891        F  0.29859863  0.60663501  0.83482116    -0.23030
F892        F  0.24341228  0.06667375  0.85657386    -0.20360
F893        F  0.25410440  0.57958202  0.78643027    -0.20030
F894        F  0.42177046  0.93871301  0.76770486    -0.20090
F895        F  0.45633949  0.48789085  0.80618661    -0.20410
F896        F  0.41924551  0.00712793  0.74954760    -0.23080
C897        C  0.18267693  0.97369170  0.86546646    -0.05920
C898        C  0.15108322  0.00535191  0.86603054     0.00010
C899        C  0.15088945  0.53673469  0.83413483    -0.08570
C900        C  0.17855752  0.53179945  0.79942142    -0.05940
C901        C  0.20810735  0.99797499  0.79648128    -0.00010
C902        C  0.21132416  0.96893328  0.83108086    -0.08470
C903        C  0.24105923  0.93075586  0.83323708     0.61900
H904        H  0.18323792  0.95071468  0.89102685     0.12600
H905        H  0.17663214  0.55418273  0.77341461     0.12610
C906        C  0.12196913  0.57549834  0.83671151     0.62140
F907        F  0.26747440  0.93521817  0.86836673    -0.23030
F908        F  0.26628679  0.42531090  0.79774872    -0.20360
F909        F  0.21704781  0.89409164  0.83760286    -0.20030
F910        F  0.12405822  0.59369667  0.87706196    -0.20090
F911        F  0.08039851  0.06335977  0.82790887    -0.20410
F912        F  0.13363817  0.60624098  0.80756578    -0.23080
C913        C  0.13629784  0.96739372  0.67877031    -0.05920
C914        C  0.14284924  0.49669421  0.64621413     0.00010
C915        C  0.17895005  0.52391611  0.64776249    -0.08570
C916        C  0.20521650  0.52301477  0.68412439    -0.05940
C917        C  0.20027597  0.49226981  0.71620901    -0.00010
C918        C  0.16475495  0.96339713  0.71307761    -0.08470
C919        C  0.15463036  0.92898316  0.74544013     0.61900
H920        H  0.10835123  0.94707087  0.67679192     0.12600
H921        H  0.22987767  0.54684054  0.68772156     0.12610
C922        C  0.19029509  0.55348227  0.61135023     0.62140
F923        F  0.12674572  0.89871005  0.72897279    -0.23030
F924        F  0.13539966  0.44703355  0.78101271    -0.20360
F925        F  0.19106072  0.90756221  0.75703624    -0.20030
F926        F  0.15586554  0.57894004  0.60119220    -0.20090
F927        F  0.20182573  0.02941603  0.57594501    -0.20410
F928        F  0.22433954  0.57987869  0.62152954    -0.23080
C929        C  0.32563638  0.97678000  0.64079176    -0.05920
C930        C  0.35582792  0.50951433  0.63916800     0.00010
C931        C  0.35392393  0.54259251  0.67008633    -0.08570
C932        C  0.32287075  0.54028457  0.70259328    -0.05940
C933        C  0.29628129  0.50431734  0.70752461     0.00050
C934        C  0.29839413  0.97132969  0.67592221    -0.08470
C935        C  0.27632371  0.92842834  0.67827031     0.61900
H936        H  0.32613698  0.95284652  0.61620722     0.12600
H937        H  0.32128553  0.56530415  0.72661985     0.12610
C938        C  0.38439401  0.58011224  0.66879625     0.62140
F939        F  0.30513878  0.39634163  0.66854167    -0.23030
F940        F  0.24319740  0.42711971  0.64909480    -0.20360
F941        F  0.26063464  0.91979897  0.71797319    -0.20030
F942        F  0.38278167  0.59869715  0.62902833    -0.20090
F943        F  0.42550832  0.06652635  0.67674679    -0.20410
F944        F  0.37405340  0.11079451  0.69913942    -0.23080
C945        C  0.98225042  0.66979300  0.78968114    -0.05920
C946        C  0.48934694  0.71188580  0.80420084     0.00010
C947        C  0.48859228  0.71707553  0.84936370    -0.08570
C948        C  0.50205299  0.68345522  0.87481881    -0.05940
C949        C  0.49844132  0.64121658  0.86039130    -0.00010
C950        C  0.98479869  0.63438632  0.81723963    -0.08470
C951        C  0.96979387  0.59127207  0.80056394     0.61900
H952        H  0.97124082  0.66415546  0.75790768     0.12600
H953        H  0.50716928  0.69013841  0.90843522     0.12610
C954        C  0.45685937  0.74679559  0.87094251     0.62140
F955        F  0.95279647  0.59363940  0.75990814    -0.23030
F956        F  0.50327857  0.56289653  0.79874396    -0.20360
F957        F  0.93812843  0.57595045  0.82702298    -0.20030
F958        F  0.42697767  0.76086919  0.84195554    -0.20090
F959        F  0.97768166  0.78061837  0.89001535    -0.20410
F960        F  0.43440853  0.72561217  0.90243928    -0.23080
C961        C  0.04406793  0.83592422  0.84959449    -0.05920
C962        C  0.50761732  0.86115496  0.85581256     0.00010
C963        C  0.47077290  0.85345932  0.83100398    -0.08570
C964        C  0.47160065  0.82048203  0.80055153    -0.05940
C965        C  0.50604905  0.79190729  0.79753184    -0.00010
C966        C  0.04330550  0.79983319  0.82253125    -0.08470
C967        C  0.08176373  0.77033713  0.82483261     0.61900
H968        H  0.07235813  0.84255419  0.86847746     0.12600
H969        H  0.44235217  0.81250406  0.78417508     0.12610
C970        C  0.42852416  0.87450102  0.84192961     0.62140
F971        F  0.11789193  0.79217648  0.81208075    -0.23030
F972        F  0.07796573  0.73406296  0.79984257    -0.20360
F973        F  0.08735360  0.75759124  0.86655723    -0.20030
F974        F  0.43338875  0.91773823  0.84624298    -0.20090
F975        F  0.41435300  0.85917463  0.88024718    -0.20410
F976        F  0.39749724  0.86650546  0.81139729    -0.23080
C977        C  0.46789485  0.81508120  0.69897878    -0.05920
C978        C  0.50485420  0.79033200  0.70474340     0.00010
C979        C  0.04206154  0.80126272  0.68088829    -0.08570
C980        C  0.03973697  0.83435380  0.65072018    -0.05940
C981        C  0.50182956  0.85687869  0.64359297    -0.00010
C982        C  0.46535250  0.84729084  0.66822035    -0.08470
C983        C  0.42264560  0.86766185  0.65850183     0.61900
H984        H  0.43931026  0.80645090  0.71589294     0.12600
H985        H  0.06743486  0.84216500  0.63154740     0.12610
C986        C  0.08404637  0.77783446  0.68551187     0.62140
F987        F  0.39039477  0.85311463  0.68487747    -0.23030
F988        F  0.41194743  0.85748693  0.61691695    -0.20360
F989        F  0.42512227  0.91142636  0.66332620    -0.20030
F990        F  0.08300538  0.74069100  0.66166021    -0.20090
F991        F  0.09157493  0.76842642  0.72759390    -0.20410
F992        F  0.11803906  0.80222925  0.67145019    -0.23080
C993        C  0.46611640  0.66721512  0.64744524    -0.05920
C994        C  0.50113401  0.63948715  0.64699756     0.00010
C995        C  0.03370636  0.64466396  0.67803686    -0.08570
C996        C  0.03295309  0.68130653  0.70451094    -0.05940
C997        C  0.49842144  0.71000157  0.70392575    -0.00010
C998        C  0.46264359  0.70036043  0.67766064    -0.08470
C999        C  0.41951445  0.72180216  0.68317557     0.61900
H1000       H  0.44038767  0.66176635  0.62489616     0.12600
H1001       H  0.05876436  0.68734250  0.72673472     0.12610
C1002       C  0.06832646  0.61138961  0.68395163     0.62140
F1003       F  0.38677378  0.69433661  0.67169060    -0.23030
F1004       F  0.41713750  0.75705559  0.65746435    -0.20360
F1005       F  0.41266229  0.73355492  0.72529199    -0.20030
F1006       F  0.08814012  0.60234720  0.64565543    -0.20090
F1007       F  0.05019584  0.57444629  0.69933587    -0.20410
F1008       F  0.09927501  0.62485571  0.71261642    -0.23080
C1009       C  0.00077718  0.24982082  0.23051987     0.00420
C1010       C  0.49788146  0.25036926  0.27485835     0.00420
O1011       O  0.00157566  0.11874691  0.07420411    -0.86630
O1012       O  0.00149869  0.37753775  0.07054116    -0.86790
O1013       O  0.92917626  0.00465774  0.11999507    -0.88460
O1014       O  0.57062575  0.99782785  0.12316593    -0.87220
O1015       O  0.62431162  0.99726380  0.07322254    -0.86810
O1016       O  0.87857498  0.00342791  0.06687469    -0.88180
O1017       O  0.00017667  0.42929707  0.12298761    -0.86660
O1018       O  0.00240869  0.06684142  0.12529888    -0.86240
Zr1019     Zr  0.00044184  0.99837656  0.08790011     2.84310
O1020       O  0.54418819  0.45476729  0.04544512    -1.08220
O1021       O  0.95851623  0.04118805  0.04379097    -1.08950
C1022       C  0.00211013  0.10606471  0.11337067     1.06480
C1023       C  0.00110658  0.39006272  0.11010028     1.06420
C1024       C  0.89014100  0.00620222  0.10644825     1.09400
C1025       C  0.61052522  0.99778288  0.11187411     1.07180
H1026       H  0.93808092  0.43869976  0.06042215     0.32740
O1027       O  0.95668999  0.45614161  0.04328052    -1.29170
H1028       H  0.56275533  0.05879636  0.06495092     0.32420
O1029       O  0.54526716  0.04109345  0.04660481    -1.30850
O1030       O  0.00341007  0.38018868  0.42911140    -0.86620
O1031       O  0.00130732  0.11880778  0.43318429    -0.88120
O1032       O  0.87927451  0.43136004  0.99483721    -0.86700
O1033       O  0.62183528  0.42452836  0.00069930    -0.86750
O1034       O  0.62354553  0.06880511  0.50393468    -0.86460
O1035       O  0.88045384  0.06852701  0.50150664    -0.86270
O1036       O  0.94041309  0.50108108  0.37828559    -0.86640
O1037       O  0.57819573  0.50360795  0.38531312    -0.86100
O1038       O  0.88491612  0.50251102  0.42534589    -0.87160
O1039       O  0.62900025  0.49984786  0.43778430    -0.86320
O1040       O  0.93040909  0.37892992  0.99615150    -0.86720
O1041       O  0.93258531  0.11906067  0.50685948    -0.86440
O1042       O  0.57133707  0.12026622  0.50333498    -0.86090
O1043       O  0.56805389  0.37533364  0.00130682    -0.86500
O1044       O  0.01019075  0.43254207  0.37887242    -0.86800
O1045       O  0.00574870  0.06807239  0.38064725    -0.88140
Zr1046     Zr  0.00075761  0.41290485  0.00070214     2.83100
Zr1047     Zr  0.00275112  0.08470467  0.50344889     2.83500
Zr1048     Zr  0.91584241  0.99966562  0.49806077     2.84090
Zr1049     Zr  0.58985167  0.49736026  0.00446212     2.83360
Zr1050     Zr  0.00701669  0.50007644  0.41676027     2.84220
O1051       O  0.54863839  0.04237787  0.46168272    -1.08710
O1052       O  0.96061248  0.45667535  0.45600091    -1.08210
C1053       C  0.00742756  0.39336153  0.39030337     1.06450
C1054       C  0.00232880  0.10704059  0.39334849     1.09070
C1055       C  0.89119904  0.39201408  0.99464706     1.06630
C1056       C  0.60777258  0.38540358  0.99933678     1.06980
C1057       C  0.61067827  0.10820453  0.50360588     1.06570
C1058       C  0.89286139  0.10741704  0.50594779     1.06120
C1059       C  0.90046339  0.50236177  0.38684555     1.06550
C1060       C  0.61724270  0.50309728  0.39858373     1.06060
H1061       H  0.94388334  0.06089893  0.43991107     0.32740
O1062       O  0.96105955  0.04286720  0.45783290    -1.29810
H1063       H  0.56515366  0.43747855  0.44201985     0.32760
O1064       O  0.54707924  0.45514853  0.45985527    -1.31190
C1065       C  0.77364714  0.00102714  0.25009175     0.00420
C1066       C  0.73015412  0.99407503  0.25432475     0.00420
C1067       C  0.73159898  0.24808684  0.48449485     0.00420
C1068       C  0.77483311  0.24968484  0.99645865     0.00420
C1069       C  0.86097621  0.32712334  0.46123534    -0.05920
C1070       C  0.85734354  0.35905587  0.99242052     0.00010
C1071       C  0.82316191  0.35734616  0.02194301    -0.08570
C1072       C  0.79562403  0.32199912  0.02099113    -0.05940
C1073       C  0.79959548  0.28973066  0.98994556    -0.00010
C1074       C  0.83151650  0.29348687  0.45791046    -0.08470
C1075       C  0.83470514  0.26322345  0.41982380     0.61900
H1076       H  0.88818882  0.32782793  0.44033601     0.12600
H1077       H  0.77106672  0.31862350  0.04511595     0.12610
C1078       C  0.81689773  0.39158843  0.05541479     0.62140
F1079       F  0.86453060  0.27724706  0.39082160    -0.23030
F1080       F  0.79641470  0.26126077  0.39830466    -0.20360
F1081       F  0.84630207  0.22287220  0.93246834    -0.20030
F1082       F  0.80556367  0.42939033  0.53627627    -0.20090
F1083       F  0.85457015  0.39701846  0.07753599    -0.20410
F1084       F  0.78508968  0.38111083  0.08411314    -0.23080
C1085       C  0.87433425  0.18380649  0.51526234    -0.05920
C1086       C  0.85966201  0.14176007  0.51076486     0.00010
C1087       C  0.81496477  0.13457520  0.01678056    -0.08570
C1088       C  0.78726685  0.17022845  0.01916036    -0.05940
C1089       C  0.80196868  0.21239567  0.51466554    -0.00010
C1090       C  0.84627145  0.21753612  0.52396157    -0.08470
C1091       C  0.86292340  0.25049339  0.55552258     0.61900
H1092       H  0.90831926  0.19015412  0.51746271     0.12600
H1093       H  0.75479483  0.16452767  0.02772606     0.12610
C1094       C  0.79588280  0.09030447  0.02204628     0.62140
F1095       F  0.88933798  0.23091549  0.08470194    -0.23030
F1096       F  0.83019440  0.26922402  0.07862046    -0.20360
F1097       F  0.88676300  0.28096929  0.53496292    -0.20030
F1098       F  0.81539052  0.07008131  0.05582844    -0.20090
F1099       F  0.80123131  0.06656686  0.48492840    -0.20410
F1100       F  0.75245236  0.09167884  0.53050746    -0.23080
C1101       C  0.68302540  0.35822683  0.99628260    -0.05920
C1102       C  0.63912978  0.34932718  0.99254156     0.00010
C1103       C  0.62722756  0.30821946  0.47580016    -0.08570
C1104       C  0.65969391  0.27933547  0.46353022    -0.05940
C1105       C  0.70334532  0.28711545  0.97172901    -0.00010
C1106       C  0.71350698  0.33106391  0.97708842    -0.08470
C1107       C  0.73708118  0.35433811  0.94204033     0.61900
H1108       H  0.69278075  0.39046789  0.00436920     0.12600
H1109       H  0.65070955  0.24849740  0.45080540     0.12610
C1110       C  0.58114159  0.29282498  0.47244140     0.62140
F1111       F  0.70759069  0.37505976  0.91680921    -0.23030
F1112       F  0.75950215  0.32730690  0.41580484    -0.20360
F1113       F  0.76437566  0.38463375  0.95904004    -0.20030
F1114       F  0.55891444  0.31757290  0.44405379    -0.20090
F1115       F  0.56189595  0.29467636  0.01218340    -0.20410
F1116       F  0.57819103  0.25104645  0.45804199    -0.23080
C1117       C  0.67555027  0.20966009  0.52451840    -0.05920
C1118       C  0.70562559  0.20793817  0.49113507     0.00010
C1119       C  0.70499483  0.17162920  0.96307929    -0.08570
C1120       C  0.67517817  0.13893319  0.97031062    -0.05940
C1121       C  0.64346240  0.14247428  0.50168634    -0.00010
C1122       C  0.64238572  0.17958921  0.52802893    -0.08470
C1123       C  0.60541708  0.18913500  0.55802290     0.61900
H1124       H  0.67577979  0.23753871  0.54521508     0.12600
H1125       H  0.67530295  0.11101607  0.94956936     0.12610
C1126       C  0.73467154  0.16447859  0.92567690     0.62140
F1127       F  0.61303649  0.22490349  0.58304360    -0.23030
F1128       F  0.59876136  0.15512249  0.08462270    -0.20360
F1129       F  0.56874599  0.19670205  0.53470244    -0.20030
F1130       F  0.75542212  0.12583317  0.92996492    -0.20090
F1131       F  0.76503882  0.19544245  0.42263544    -0.20410
F1132       F  0.71114366  0.16361131  0.38831580    -0.23080
C1133       C  0.83188893  0.02749106  0.35608360    -0.05920
C1134       C  0.87025851  0.50464130  0.34989433     0.00010
C1135       C  0.87739441  0.48615899  0.30840049    -0.08570
C1136       C  0.84162650  0.47919317  0.28271519    -0.05940
C1137       C  0.80418465  0.50341596  0.28741624    -0.00010
C1138       C  0.80198934  0.03227772  0.32279914    -0.08470
C1139       C  0.77382628  0.07147746  0.32489344     0.61900
H1140       H  0.82762004  0.04589828  0.38527529     0.12600
H1141       H  0.84538224  0.45913117  0.25455869     0.12610
C1142       C  0.91945901  0.47983796  0.28392435     0.62140
F1143       F  0.79866723  0.10670196  0.33482474    -0.23030
F1144       F  0.74334797  0.56653157  0.35656078    -0.20360
F1145       F  0.75414135  0.07968140  0.28644526    -0.20030
F1146       F  0.92182538  0.43872810  0.26770951    -0.20090
F1147       F  0.95634096  0.98786965  0.30614835    -0.20410
F1148       F  0.91929894  0.50714242  0.24955210    -0.23080
C1149       C  0.68268963  0.47365901  0.36543083    -0.05920
C1150       C  0.65102116  0.50524778  0.36592843     0.00010
C1151       C  0.65093940  0.03686437  0.33424052    -0.08570
C1152       C  0.67858176  0.03193320  0.29950329    -0.05940
C1153       C  0.70811682  0.49789397  0.29642296    -0.00010
C1154       C  0.71135016  0.46889259  0.33105461    -0.08470
C1155       C  0.74111510  0.43074167  0.33325346     0.61900
H1156       H  0.68329383  0.45072844  0.39103205     0.12600
H1157       H  0.67666956  0.05434649  0.27352161     0.12610
C1158       C  0.62212701  0.07570220  0.33692990     0.62140
F1159       F  0.76750341  0.43524275  0.36839895    -0.23030
F1160       F  0.76625043  0.92539466  0.29771373    -0.20360
F1161       F  0.71712746  0.39406298  0.33761944    -0.20030
F1162       F  0.62438421  0.09385543  0.37729021    -0.20090
F1163       F  0.58014301  0.56270094  0.32723553    -0.20410
F1164       F  0.63379548  0.10644002  0.30777874    -0.23080
C1165       C  0.63639347  0.46727083  0.17869469    -0.05920
C1166       C  0.64283786  0.99678225  0.14621566     0.00010
C1167       C  0.67892962  0.02401462  0.14777106    -0.08570
C1168       C  0.70517903  0.02313430  0.18414696    -0.05940
C1169       C  0.70022702  0.99240369  0.21624438    -0.00010
C1170       C  0.66486218  0.46326469  0.21299267    -0.08470
C1171       C  0.65477148  0.42882082  0.24533298     0.61900
H1172       H  0.60845925  0.44693138  0.17670781     0.12600
H1173       H  0.72984249  0.04695852  0.18774079     0.12610
C1174       C  0.69028594  0.05356422  0.11134942     0.62140
F1175       F  0.62696110  0.39850356  0.22882099    -0.23030
F1176       F  0.63535541  0.94723482  0.28107329    -0.20360
F1177       F  0.69122873  0.40746345  0.25696377    -0.20030
F1178       F  0.65585602  0.07900821  0.10115970    -0.20090
F1179       F  0.70185647  0.52941271  0.07590663    -0.20410
F1180       F  0.72431863  0.07997407  0.12153326    -0.23080
C1181       C  0.82569091  0.47677891  0.14077239    -0.05920
C1182       C  0.85579359  0.00956230  0.13915185     0.00010
C1183       C  0.85389943  0.04264479  0.17006763    -0.08570
C1184       C  0.82284252  0.04035429  0.20257273    -0.05940
C1185       C  0.79623923  0.00439856  0.20751055     0.00050
C1186       C  0.79846691  0.47130331  0.17591014    -0.08470
C1187       C  0.77644293  0.42837939  0.17827648     0.61900
H1188       H  0.82619368  0.45285496  0.11618042     0.12600
H1189       H  0.82126852  0.06537641  0.22659735     0.12610
C1190       C  0.88438874  0.08014924  0.16878161     0.62140
F1191       F  0.80505288  0.89641620  0.16858122    -0.23030
F1192       F  0.74315636  0.92721460  0.14902339    -0.20360
F1193       F  0.76084942  0.41971689  0.21800989    -0.20030
F1194       F  0.88278942  0.09873592  0.12901417    -0.20090
F1195       F  0.92555112  0.56652350  0.17674392    -0.20410
F1196       F  0.87409905  0.61077711  0.19917047    -0.23080
C1197       C  0.48230240  0.16976464  0.28967544    -0.05920
C1198       C  0.98932578  0.21186567  0.30416992     0.00010
C1199       C  0.98848113  0.21704894  0.34933174    -0.08570
C1200       C  0.00193247  0.18344913  0.37481912    -0.05940
C1201       C  0.99846617  0.14120354  0.36037656    -0.00010
C1202       C  0.48486419  0.13435934  0.31723536    -0.08470
C1203       C  0.46994125  0.09122403  0.30053372     0.61900
H1204       H  0.47131753  0.16411595  0.25789629     0.12600
H1205       H  0.00695038  0.19014147  0.40844861     0.12610
C1206       C  0.95672558  0.24677527  0.37086231     0.62140
F1207       F  0.45303054  0.09356418  0.25984018    -0.23030
F1208       F  0.00378859  0.06289799  0.29878683    -0.20360
F1209       F  0.43823384  0.07587607  0.32692697    -0.20030
F1210       F  0.92687705  0.26083895  0.34183585    -0.20090
F1211       F  0.47762664  0.28060982  0.38998851    -0.20410
F1212       F  0.93424102  0.22559703  0.40233815    -0.23080
C1213       C  0.54403476  0.33592605  0.34958197    -0.05920
C1214       C  0.00760545  0.36114574  0.35581803     0.00010
C1215       C  0.97076101  0.35346208  0.33100600    -0.08570
C1216       C  0.97158246  0.32048467  0.30055359    -0.05940
C1217       C  0.00602045  0.29189600  0.29754103    -0.00010
C1218       C  0.54328162  0.29983003  0.32252701    -0.08470
C1219       C  0.58174628  0.27034264  0.32483511     0.61900
H1220       H  0.57232329  0.34256662  0.36846397     0.12600
H1221       H  0.94233612  0.31252190  0.28416669     0.12610
C1222       C  0.92851613  0.37451375  0.34192978     0.62140
F1223       F  0.61786958  0.29218611  0.31207666    -0.23030
F1224       F  0.57795543  0.23406067  0.29985547    -0.20360
F1225       F  0.58734002  0.25760887  0.36656279    -0.20030
F1226       F  0.93339169  0.41774893  0.34625301    -0.20090
F1227       F  0.91433373  0.35918365  0.38024212    -0.20410
F1228       F  0.89749193  0.36653284  0.31139096    -0.23080
C1229       C  0.96789171  0.31512390  0.19897960    -0.05920
C1230       C  0.00484831  0.29037395  0.20475433     0.00010
C1231       C  0.54207646  0.30125896  0.18089663    -0.08570
C1232       C  0.53975867  0.33435014  0.15072780    -0.05940
C1233       C  0.00183841  0.35690686  0.14358959    -0.00010
C1234       C  0.96535837  0.34733091  0.16821773    -0.08470
C1235       C  0.92265641  0.36770899  0.15849474     0.61900
H1236       H  0.93930208  0.30649389  0.21588567     0.12600
H1237       H  0.56746067  0.34216069  0.13156058     0.12610
C1238       C  0.58405873  0.27782686  0.18552275     0.62140
F1239       F  0.89040331  0.35317648  0.18487573    -0.23030
F1240       F  0.91195545  0.35752467  0.11691306    -0.20360
F1241       F  0.92514315  0.41147415  0.16330693    -0.20030
F1242       F  0.58302302  0.24069424  0.16165376    -0.20090
F1243       F  0.59157494  0.26839870  0.22760200    -0.20410
F1244       F  0.61805631  0.30222736  0.17148255    -0.23080
C1245       C  0.96608100  0.16725211  0.14743296    -0.05920
C1246       C  0.00110018  0.13952672  0.14697999     0.00010
C1247       C  0.53371008  0.14466670  0.17802551    -0.08570
C1248       C  0.53296021  0.18131006  0.20449674    -0.05940
C1249       C  0.99840858  0.21005274  0.20388763    -0.00010
C1250       C  0.96261708  0.20040217  0.17764371    -0.08470
C1251       C  0.91948964  0.22184629  0.18316812     0.61900
H1252       H  0.94034589  0.16179740  0.12489286     0.12600
H1253       H  0.55877061  0.18734364  0.22672221     0.12610
C1254       C  0.56832072  0.11138442  0.18394905     0.62140
F1255       F  0.88674465  0.19438902  0.17167507    -0.23030
F1256       F  0.91711382  0.25710890  0.15746912    -0.20360
F1257       F  0.91264186  0.23358531  0.22528896    -0.20030
F1258       F  0.58814117  0.10233776  0.14565762    -0.20090
F1259       F  0.55017728  0.07444537  0.19932883    -0.20410
F1260       F  0.59926525  0.12484267  0.21262201    -0.23080
C1261       C  0.00078669  0.24980696  0.73051956     0.00420
C1262       C  0.49790257  0.25039256  0.77486014     0.00420
O1263       O  0.00156508  0.11871343  0.57423833    -0.86630
O1264       O  0.00148426  0.37753412  0.57054839    -0.86790
O1265       O  0.92916875  0.00461749  0.61999741    -0.88460
O1266       O  0.57061109  0.99773766  0.62319278    -0.87220
O1267       O  0.62428952  0.99717927  0.57324250    -0.86810
O1268       O  0.87857428  0.00338918  0.56686914    -0.88180
O1269       O  0.00016050  0.42929038  0.62299800    -0.86660
O1270       O  0.00241518  0.06680130  0.62532613    -0.86240
Zr1271     Zr  0.00043614  0.99834328  0.58791279     2.84310
O1272       O  0.54417123  0.45476968  0.54541951    -1.08220
O1273       O  0.95850860  0.04115576  0.54380295    -1.08950
C1274       C  0.00210882  0.10602645  0.61340342     1.06480
C1275       C  0.00109332  0.39005702  0.61010746     1.06420
C1276       C  0.89013588  0.00615787  0.60644468     1.09400
C1277       C  0.61050903  0.99767363  0.61189432     1.07180
H1278       H  0.93806174  0.43869439  0.56043616     0.32740
O1279       O  0.95667043  0.45613688  0.54329483    -1.29170
H1280       H  0.56274906  0.05878067  0.56498796     0.32420
O1281       O  0.54526054  0.04108408  0.54663485    -1.30850
O1282       O  0.00343389  0.38019774  0.92909334    -0.86620
O1283       O  0.00128431  0.11881260  0.93315594    -0.88120
O1284       O  0.87925232  0.43135258  0.49485440    -0.86700
O1285       O  0.62181050  0.42452793  0.50068996    -0.86750
O1286       O  0.62355733  0.06881258  0.00388248    -0.86460
O1287       O  0.88046399  0.06855919  0.00152107    -0.86270
O1288       O  0.94042891  0.50107908  0.87826457    -0.86640
O1289       O  0.57825729  0.50367745  0.88536154    -0.86100
O1290       O  0.88493617  0.50250464  0.92533044    -0.87160
O1291       O  0.62904767  0.49990215  0.93784716    -0.86320
O1292       O  0.93038974  0.37892519  0.49616700    -0.86720
O1293       O  0.93259968  0.11909002  0.00685323    -0.86440
O1294       O  0.57135035  0.12027602  0.00329921    -0.86090
O1295       O  0.56802893  0.37533289  0.50129895    -0.86500
O1296       O  0.01020823  0.43255414  0.87885613    -0.86800
O1297       O  0.00573952  0.06808053  0.88061148    -0.88140
Zr1298     Zr  0.00073797  0.41290318  0.50071434     2.83100
Zr1299     Zr  0.00275758  0.08472464  0.00342187     2.83500
Zr1300     Zr  0.91583886  0.99969425  0.99806577     2.84090
Zr1301     Zr  0.58982690  0.49736162  0.50442418     2.83360
Zr1302     Zr  0.00703212  0.50008126  0.91674809     2.84220
O1303       O  0.54864117  0.04238233  0.96165247    -1.08710
O1304       O  0.96063122  0.45668000  0.95599098    -1.08210
C1305       C  0.00744972  0.39337374  0.89028560     1.06450
C1306       C  0.00230660  0.10704820  0.89332039     1.09070
C1307       C  0.89117878  0.39200704  0.49466440     1.06630
C1308       C  0.60774777  0.38540282  0.49933394     1.06980
C1309       C  0.61069128  0.10821236  0.00356010     1.06570
C1310       C  0.89287545  0.10744784  0.00595693     1.06120
C1311       C  0.90047869  0.50235355  0.88682761     1.06550
C1312       C  0.61730091  0.50317741  0.89864757     1.06060
H1313       H  0.94386962  0.06091645  0.93990107     0.32740
O1314       O  0.96104836  0.04288754  0.95782258    -1.29810
H1315       H  0.56519394  0.43748500  0.94204155     0.32760
O1316       O  0.54711650  0.45515048  0.95987832    -1.31190
C1317       C  0.77365389  0.00087136  0.75008848     0.00420
C1318       C  0.73016948  0.99387127  0.75429407     0.00420
C1319       C  0.73162154  0.24808894  0.98447998     0.00420
C1320       C  0.77481418  0.24967134  0.49646231     0.00420
C1321       C  0.86100404  0.32712174  0.96122997    -0.05920
C1322       C  0.85732533  0.35904630  0.49243922     0.00010
C1323       C  0.82315278  0.35732576  0.52197157    -0.08570
C1324       C  0.79561563  0.32197751  0.52101604    -0.05940
C1325       C  0.79957852  0.28971877  0.48995880    -0.00010
C1326       C  0.83154427  0.29348630  0.95790600    -0.08470
C1327       C  0.83474909  0.26320817  0.91983193     0.61900
H1328       H  0.88822849  0.32781169  0.94034650     0.12600
H1329       H  0.77106295  0.31859520  0.54514449     0.12610
C1330       C  0.81688711  0.39156513  0.55544732     0.62140
F1331       F  0.86457767  0.27722675  0.89083103    -0.23030
F1332       F  0.79646342  0.26122678  0.89830522    -0.20360
F1333       F  0.84624745  0.22287852  0.43244295    -0.20030
F1334       F  0.80559222  0.42941733  0.03624056    -0.20090
F1335       F  0.85456148  0.39701094  0.57756151    -0.20410
F1336       F  0.78509012  0.38107484  0.58415288    -0.23080
C1337       C  0.87435274  0.18383563  0.01528026    -0.05920
C1338       C  0.85967930  0.14178984  0.01078507     0.00010
C1339       C  0.81494573  0.13454645  0.51675005    -0.08570
C1340       C  0.78724820  0.17020125  0.51913364    -0.05940
C1341       C  0.80198700  0.21242075  0.01468157    -0.00010
C1342       C  0.84628982  0.21756519  0.02397627    -0.08470
C1343       C  0.86294567  0.25053219  0.05552477     0.61900
H1344       H  0.90833800  0.19018340  0.01747743     0.12600
H1345       H  0.75477681  0.16449896  0.52769970     0.12610
C1346       C  0.79586118  0.09027399  0.52199805     0.62140
F1347       F  0.88932109  0.23087098  0.58469162    -0.23030
F1348       F  0.83016907  0.26916921  0.57862718    -0.20360
F1349       F  0.88679354  0.28099470  0.03495489    -0.20030
F1350       F  0.81535856  0.07003994  0.55577961    -0.20090
F1351       F  0.80124121  0.06658640  0.98498209    -0.20410
F1352       F  0.75247685  0.09171212  0.03056775    -0.23080
C1353       C  0.68299969  0.35821878  0.49632533    -0.05920
C1354       C  0.63910570  0.34932469  0.49255371     0.00010
C1355       C  0.62724600  0.30821793  0.97580153    -0.08570
C1356       C  0.65970829  0.27933051  0.96352925    -0.05940
C1357       C  0.70332837  0.28711846  0.47174664    -0.00010
C1358       C  0.71348789  0.33106541  0.47712813    -0.08470
C1359       C  0.73705903  0.35435806  0.44208981     0.61900
H1360       H  0.69275205  0.39045633  0.50443060     0.12600
H1361       H  0.65071965  0.24849014  0.95081364     0.12610
C1362       C  0.58115879  0.29282454  0.97245397     0.62140
F1363       F  0.70756687  0.37509421  0.41687240    -0.23030
F1364       F  0.75952719  0.32727288  0.91577201    -0.20360
F1365       F  0.76435533  0.38464452  0.45910250    -0.20030
F1366       F  0.55892735  0.31756990  0.94406707    -0.20090
F1367       F  0.56187092  0.29467183  0.51216720    -0.20410
F1368       F  0.57820380  0.25104461  0.95805955    -0.23080
C1369       C  0.67558105  0.20964980  0.02450291    -0.05920
C1370       C  0.70565470  0.20793495  0.99111785     0.00010
C1371       C  0.70496438  0.17162844  0.46310209    -0.08570
C1372       C  0.67516919  0.13891973  0.47036002    -0.05940
C1373       C  0.64347734  0.14248001  0.00164378    -0.00010
C1374       C  0.64241542  0.17957953  0.02800859    -0.08470
C1375       C  0.60545950  0.18911062  0.05802256     0.61900
H1376       H  0.67581440  0.23752253  0.04520756     0.12600
H1377       H  0.67531192  0.11098800  0.44964066     0.12610
C1378       C  0.73461682  0.16448739  0.42567858     0.62140
F1379       F  0.61309356  0.22486198  0.08306318    -0.23030
F1380       F  0.59871273  0.15516314  0.58464224    -0.20360
F1381       F  0.56878019  0.19669666  0.03472146    -0.20030
F1382       F  0.75541099  0.12586625  0.42997072    -0.20090
F1383       F  0.76513054  0.19540228  0.92267999    -0.20410
F1384       F  0.71123027  0.16364773  0.88829391    -0.23080
C1385       C  0.83183082  0.02743368  0.85608675    -0.05920
C1386       C  0.87026432  0.50463344  0.84988017     0.00010
C1387       C  0.87738096  0.48615187  0.80838162    -0.08570
C1388       C  0.84160364  0.47921606  0.78269595    -0.05940
C1389       C  0.80417265  0.50345587  0.78740964    -0.00010
C1390       C  0.80193085  0.03217445  0.82279467    -0.08470
C1391       C  0.77372082  0.07134263  0.82486334     0.61900
H1392       H  0.82754064  0.04584855  0.88527035     0.12600
H1393       H  0.84534360  0.45915884  0.75453408     0.12610
C1394       C  0.91944025  0.47978533  0.78390886     0.62140
F1395       F  0.79851645  0.10659945  0.83479224    -0.23030
F1396       F  0.74342495  0.56664410  0.85657980    -0.20360
F1397       F  0.75404190  0.07951009  0.78640368    -0.20030
F1398       F  0.92177677  0.43866315  0.76772303    -0.20090
F1399       F  0.95631790  0.98797862  0.80614606    -0.20410
F1400       F  0.91930063  0.50706616  0.74951723    -0.23080
C1401       C  0.68268614  0.47368393  0.86543766    -0.05920
C1402       C  0.65109076  0.50534283  0.86601053     0.00010
C1403       C  0.65080692  0.03663809  0.83406500    -0.08570
C1404       C  0.67850034  0.03170543  0.79937207    -0.05940
C1405       C  0.70811540  0.49798354  0.79645617    -0.00010
C1406       C  0.71133443  0.46893542  0.83105074    -0.08470
C1407       C  0.74107378  0.43076082  0.83320086     0.61900
H1408       H  0.68325022  0.45070193  0.89099370     0.12600
H1409       H  0.67656209  0.05406492  0.77334568     0.12610
C1410       C  0.62178732  0.07533280  0.83654442     0.62140
F1411       F  0.76748063  0.43521434  0.86833784    -0.23030
F1412       F  0.76627729  0.92526016  0.79778071    -0.20360
F1413       F  0.71706572  0.39409256  0.83754805    -0.20030
F1414       F  0.62372829  0.09356997  0.87688581    -0.20090
F1415       F  0.58040153  0.56335360  0.82790555    -0.20410
F1416       F  0.63345119  0.10608173  0.80740340    -0.23080
C1417       C  0.63634084  0.46738826  0.67870266    -0.05920
C1418       C  0.64283632  0.99662877  0.64621760     0.00010
C1419       C  0.67893620  0.02385124  0.64776757    -0.08570
C1420       C  0.70520450  0.02294073  0.68412511    -0.05940
C1421       C  0.70027451  0.99217954  0.71619477    -0.00010
C1422       C  0.66477913  0.46340873  0.71302936    -0.08470
C1423       C  0.65464354  0.42900171  0.74539644     0.61900
H1424       H  0.60840091  0.44705744  0.67671350     0.12600
H1425       H  0.72985674  0.04677419  0.68773227     0.12610
C1426       C  0.69027901  0.05342801  0.61136244     0.62140
F1427       F  0.62675484  0.39873063  0.72893243    -0.23030
F1428       F  0.63540437  0.94688814  0.78097649    -0.20360
F1429       F  0.69106868  0.40757634  0.75700019    -0.20030
F1430       F  0.65584956  0.07888972  0.60121404    -0.20090
F1431       F  0.70186721  0.52942841  0.57589687    -0.20410
F1432       F  0.72432512  0.07982064  0.62154613    -0.23080
C1433       C  0.82565242  0.47680048  0.64077848    -0.05920
C1434       C  0.85578736  0.00949391  0.63914620     0.00010
C1435       C  0.85387384  0.04256942  0.67006750    -0.08570
C1436       C  0.82283237  0.04024187  0.70258396    -0.05940
C1437       C  0.79626473  0.00425976  0.70752047     0.00050
C1438       C  0.79840893  0.47134962  0.67590633    -0.08470
C1439       C  0.77634148  0.42844677  0.67825294     0.61900
H1440       H  0.82615540  0.45286690  0.61619382     0.12600
H1441       H  0.82123913  0.06525966  0.72661183     0.12610
C1442       C  0.88432331  0.08010587  0.66877254     0.62140
F1443       F  0.80516941  0.89629009  0.66851119    -0.23030
F1444       F  0.74318866  0.92703607  0.64913986    -0.20360
F1445       F  0.76064360  0.41981883  0.71795207    -0.20030
F1446       F  0.88269501  0.09869013  0.62900499    -0.20090
F1447       F  0.92552575  0.56653753  0.67674171    -0.20410
F1448       F  0.87407562  0.61080875  0.69913771    -0.23080
C1449       C  0.48220519  0.16981413  0.78969310    -0.05920
C1450       C  0.98934374  0.21189810  0.80418461     0.00010
C1451       C  0.98860166  0.21708328  0.84934731    -0.08570
C1452       C  0.00206238  0.18345793  0.87479475    -0.05940
C1453       C  0.99843955  0.14122111  0.86036334    -0.00010
C1454       C  0.48472331  0.13440827  0.81725664    -0.08470
C1455       C  0.46963231  0.09131621  0.80060805     0.61900
H1456       H  0.47117963  0.16418561  0.75792259     0.12600
H1457       H  0.00718786  0.19013762  0.90841041     0.12610
C1458       C  0.95687831  0.24680586  0.87093607     0.62140
F1459       F  0.45256268  0.09370972  0.75998427    -0.23030
F1460       F  0.00328336  0.06291499  0.79871299    -0.20360
F1461       F  0.43799676  0.07603106  0.82712446    -0.20030
F1462       F  0.92699378  0.26088702  0.84195603    -0.20090
F1463       F  0.47774927  0.28063160  0.89003251    -0.20410
F1464       F  0.93443052  0.22562245  0.90243498    -0.23080
C1465       C  0.54407732  0.33594377  0.84957826    -0.05920
C1466       C  0.00763045  0.36116387  0.85579650     0.00010
C1467       C  0.97078071  0.35346894  0.83099586    -0.08570
C1468       C  0.97160491  0.32049518  0.80054030    -0.05940
C1469       C  0.00605139  0.29191866  0.79751769    -0.00010
C1470       C  0.54331927  0.29985103  0.82251809    -0.08470
C1471       C  0.58177837  0.27035649  0.82482561     0.61900
H1472       H  0.57236590  0.34257712  0.86846287     0.12600
H1473       H  0.94235428  0.31251819  0.78416676     0.12610
C1474       C  0.92852816  0.37449310  0.84194310     0.62140
F1475       F  0.61790670  0.29219466  0.81207221    -0.23030
F1476       F  0.57798184  0.23407826  0.79984115    -0.20360
F1477       F  0.58736687  0.25761701  0.86655244    -0.20030
F1478       F  0.93337805  0.41772993  0.84628723    -0.20090
F1479       F  0.91436938  0.35913441  0.88025115    -0.20410
F1480       F  0.89749759  0.36650797  0.81141186    -0.23080
C1481       C  0.96788860  0.31509706  0.69896806    -0.05920
C1482       C  0.00484710  0.29034747  0.70473358     0.00010
C1483       C  0.54207646  0.30126028  0.68088186    -0.08570
C1484       C  0.53975802  0.33435549  0.65071641    -0.05940
C1485       C  0.00183056  0.35689785  0.64359128    -0.00010
C1486       C  0.96535003  0.34730794  0.66821184    -0.08470
C1487       C  0.92264378  0.36767552  0.65848543     0.61900
H1488       H  0.93930277  0.30646748  0.71588056     0.12600
H1489       H  0.56745888  0.34216825  0.63154869     0.12610
C1490       C  0.58405912  0.27782879  0.68550999     0.62140
F1491       F  0.89039096  0.35313282  0.68486115    -0.23030
F1492       F  0.91195102  0.35749031  0.61690171    -0.20360
F1493       F  0.92511838  0.41144116  0.66330022    -0.20030
F1494       F  0.58301006  0.24067393  0.66167676    -0.20090
F1495       F  0.59159137  0.26844024  0.72759572    -0.20410
F1496       F  0.61805396  0.30221114  0.67143191    -0.23080
C1497       C  0.96607903  0.16721277  0.64746376    -0.05920
C1498       C  0.00109640  0.13948543  0.64701679     0.00010
C1499       C  0.53370244  0.14465333  0.67805148    -0.08570
C1500       C  0.53294956  0.18129582  0.70452611    -0.05940
C1501       C  0.99840494  0.21001935  0.70391552    -0.00010
C1502       C  0.96261795  0.20037179  0.67766437    -0.08470
C1503       C  0.91949217  0.22182093  0.68317933     0.61900
H1504       H  0.94034416  0.16175545  0.62492357     0.12600
H1505       H  0.55876190  0.18733267  0.72674853     0.12610
C1506       C  0.56832985  0.11138504  0.68395675     0.62140
F1507       F  0.88674594  0.19435700  0.67170599    -0.23030
F1508       F  0.91711599  0.25706780  0.65745851    -0.20360
F1509       F  0.91264728  0.23358498  0.72529385    -0.20030
F1510       F  0.58813654  0.10234949  0.64565536    -0.20090
F1511       F  0.55020990  0.07443719  0.69934237    -0.20410
F1512       F  0.59928247  0.12485551  0.71261500    -0.23080
C1513       C  0.00080501  0.74981646  0.23051428     0.00420
C1514       C  0.49790424  0.75039564  0.27486761     0.00420
O1515       O  0.00160771  0.61872598  0.07421714    -0.86630
O1516       O  0.00148410  0.87755363  0.07055212    -0.86790
O1517       O  0.92921100  0.50463321  0.11998737    -0.88460
O1518       O  0.57066434  0.49769256  0.12317516    -0.87220
O1519       O  0.62432925  0.49713815  0.07320886    -0.86810
O1520       O  0.87860824  0.50340039  0.06686735    -0.88180
O1521       O  0.00015732  0.92931349  0.12299827    -0.86660
O1522       O  0.00245529  0.56681555  0.12530646    -0.86240
Zr1523     Zr  0.00047064  0.49835717  0.08789161     2.84310
O1524       O  0.54417147  0.95478272  0.04545354    -1.08220
O1525       O  0.95853929  0.54117094  0.04378866    -1.08950
C1526       C  0.00215211  0.60604065  0.11338303     1.06480
C1527       C  0.00109171  0.89007860  0.11011041     1.06420
C1528       C  0.89017649  0.50616993  0.10644042     1.09400
C1529       C  0.61055905  0.49761712  0.11186503     1.07180
H1530       H  0.93806254  0.93871898  0.06043312     0.32740
O1531       O  0.95667003  0.95615887  0.04328926    -1.29170
H1532       H  0.56280101  0.55876914  0.06497296     0.32420
O1533       O  0.54530536  0.54107729  0.04662220    -1.30850
O1534       O  0.00341233  0.88019358  0.42910207    -0.86620
O1535       O  0.00129730  0.61880941  0.43317119    -0.88120
O1536       O  0.87924599  0.93137761  0.99488077    -0.86700
O1537       O  0.62182521  0.92454755  0.00073168    -0.86750
O1538       O  0.62354561  0.56880029  0.50383521    -0.86460
O1539       O  0.88045939  0.56853471  0.50152033    -0.86270
O1540       O  0.94044190  0.00109457  0.37826292    -0.86640
O1541       O  0.57828282  0.00375824  0.38539960    -0.86100
O1542       O  0.88494192  0.00248765  0.42532331    -0.87160
O1543       O  0.62905036  0.99997511  0.43790868    -0.86320
O1544       O  0.93038775  0.87895297  0.99618924    -0.86720
O1545       O  0.93258735  0.61907293  0.50685728    -0.86440
O1546       O  0.57133463  0.62026155  0.50326705    -0.86090
O1547       O  0.56804455  0.87535180  0.00132034    -0.86500
O1548       O  0.01020623  0.93255025  0.37886759    -0.86800
O1549       O  0.00574898  0.56807651  0.38062833    -0.88140
Zr1550     Zr  0.00073975  0.91291924  0.00071694     2.83100
Zr1551     Zr  0.00275207  0.58471184  0.50343788     2.83500
Zr1552     Zr  0.91584355  0.49967436  0.49806715     2.84090
Zr1553     Zr  0.58983235  0.99737905  0.00446734     2.83360
Zr1554     Zr  0.00703332  0.00007559  0.41676568     2.84220
O1555       O  0.54862560  0.54237367  0.46162655    -1.08710
O1556       O  0.96062204  0.95667249  0.45599822    -1.08210
C1557       C  0.00743646  0.89336981  0.39029522     1.06450
C1558       C  0.00232366  0.60704497  0.39333484     1.09070
C1559       C  0.89117641  0.89203415  0.99469510     1.06630
C1560       C  0.60776398  0.88542187  0.99936459     1.06980
C1561       C  0.61067568  0.60819955  0.50351718     1.06570
C1562       C  0.89286409  0.60742563  0.50595498     1.06120
C1563       C  0.90049036  0.00235649  0.38682230     1.06550
C1564       C  0.61732184  0.00327795  0.39870811     1.06060
H1565       H  0.94387526  0.56090584  0.43990878     0.32740
O1566       O  0.96105285  0.54287447  0.45782959    -1.29810
H1567       H  0.56519534  0.93749365  0.44205333     0.32760
O1568       O  0.54711058  0.95515337  0.45988866    -1.31190
C1569       C  0.77369415  0.50082049  0.25007807     0.00420
C1570       C  0.73021407  0.49378709  0.25426137     0.00420
C1571       C  0.73159846  0.74808349  0.48445572     0.00420
C1572       C  0.77484284  0.74968695  0.99648352     0.00420
C1573       C  0.86100500  0.82709878  0.46126385    -0.05920
C1574       C  0.85732887  0.85907293  0.99247407     0.00010
C1575       C  0.82316145  0.85734369  0.02201075    -0.08570
C1576       C  0.79562979  0.82199123  0.02104918    -0.05940
C1577       C  0.79959785  0.78973824  0.98998499    -0.00010
C1578       C  0.83154358  0.79346645  0.45792338    -0.08470
C1579       C  0.83476228  0.76319351  0.41984562     0.61900
H1580       H  0.88823777  0.82779078  0.44039108     0.12600
H1581       H  0.77107797  0.81860125  0.04517735     0.12610
C1582       C  0.81688542  0.89158481  0.05548560     0.62140
F1583       F  0.86461851  0.77720412  0.39086962    -0.23030
F1584       F  0.79649337  0.76123463  0.39828882    -0.20360
F1585       F  0.84629185  0.72290806  0.93247091    -0.20030
F1586       F  0.80556023  0.92939040  0.53626166    -0.20090
F1587       F  0.85455644  0.89705406  0.07760157    -0.20410
F1588       F  0.78509388  0.88108368  0.08419313    -0.23080
C1589       C  0.87432382  0.68380882  0.51530219    -0.05920
C1590       C  0.85965961  0.64176296  0.51077429     0.00010
C1591       C  0.81498379  0.63456699  0.01677684    -0.08570
C1592       C  0.78728668  0.67022187  0.01916112    -0.05940
C1593       C  0.80195394  0.71238930  0.51465657    -0.00010
C1594       C  0.84624923  0.71753238  0.52398917    -0.08470
C1595       C  0.86287651  0.75049081  0.55556102     0.61900
H1596       H  0.90830661  0.69015834  0.51753269     0.12600
H1597       H  0.75481610  0.66452121  0.02773227     0.12610
C1598       C  0.79590264  0.59029657  0.02204790     0.62140
F1599       F  0.88939584  0.73089275  0.08466733    -0.23030
F1600       F  0.83024270  0.76919422  0.07863102    -0.20360
F1601       F  0.88673919  0.78096170  0.53501975    -0.20030
F1602       F  0.81542004  0.57007222  0.05582388    -0.20090
F1603       F  0.80125063  0.56656587  0.48488496    -0.20410
F1604       F  0.75244363  0.59166317  0.53044160    -0.23080
C1605       C  0.68301866  0.85824072  0.99633486    -0.05920
C1606       C  0.63912353  0.84934326  0.99258190     0.00010
C1607       C  0.62722832  0.80822850  0.47579800    -0.08570
C1608       C  0.65968633  0.77933851  0.46352229    -0.05940
C1609       C  0.70334545  0.78712749  0.97178382    -0.00010
C1610       C  0.71350401  0.83107835  0.97714413    -0.08470
C1611       C  0.73708342  0.85435723  0.94210141     0.61900
H1612       H  0.69277230  0.89048200  0.00442291     0.12600
H1613       H  0.65069204  0.74850071  0.45080500     0.12610
C1614       C  0.58113980  0.79283592  0.47245666     0.62140
F1615       F  0.70760140  0.87511024  0.91688575    -0.23030
F1616       F  0.75953029  0.82725289  0.41576491    -0.20360
F1617       F  0.76439904  0.88462896  0.95910836    -0.20030
F1618       F  0.55890688  0.81757883  0.44406864    -0.20090
F1619       F  0.56188068  0.79469597  0.01220471    -0.20410
F1620       F  0.57818122  0.75105475  0.45806650    -0.23080
C1621       C  0.67556385  0.70963225  0.52447344    -0.05920
C1622       C  0.70562699  0.70793089  0.49107873     0.00010
C1623       C  0.70500782  0.67163672  0.96309831    -0.08570
C1624       C  0.67520484  0.63892865  0.97033380    -0.05940
C1625       C  0.64345520  0.64247120  0.50159611    -0.00010
C1626       C  0.64240114  0.67955931  0.52797763    -0.08470
C1627       C  0.60545249  0.68907799  0.55800468     0.61900
H1628       H  0.67580360  0.73749602  0.54519023     0.12600
H1629       H  0.67533349  0.61101448  0.94958868     0.12610
C1630       C  0.73467150  0.66450529  0.92568204     0.62140
F1631       F  0.61309321  0.72481671  0.58306191    -0.23030
F1632       F  0.59878413  0.65508158  0.08464437    -0.20360
F1633       F  0.56876857  0.69667700  0.53471477    -0.20030
F1634       F  0.75545591  0.62587728  0.92996467    -0.20090
F1635       F  0.76507217  0.69543835  0.42261110    -0.20410
F1636       F  0.71116986  0.66368210  0.38822995    -0.23080
C1637       C  0.83183091  0.52741544  0.35608778    -0.05920
C1638       C  0.87027905  0.00466106  0.34987492     0.00010
C1639       C  0.87737954  0.98618675  0.30836974    -0.08570
C1640       C  0.84159683  0.97930820  0.28267319    -0.05940
C1641       C  0.80418302  0.00357274  0.28740576    -0.00010
C1642       C  0.80192680  0.53213336  0.32279505    -0.08470
C1643       C  0.77366667  0.57126641  0.32487016     0.61900
H1644       H  0.82752481  0.54582356  0.38527314     0.12600
H1645       H  0.84531687  0.95926077  0.25450185     0.12610
C1646       C  0.91943734  0.97974118  0.28391414     0.62140
F1647       F  0.79841398  0.60655037  0.33482358    -0.23030
F1648       F  0.74352566  0.06681800  0.35661249    -0.20360
F1649       F  0.75399101  0.57942567  0.28640667    -0.20030
F1650       F  0.92171484  0.93860520  0.26775741    -0.20090
F1651       F  0.95635094  0.48801257  0.30615900    -0.20410
F1652       F  0.91935048  0.00699870  0.24950325    -0.23080
C1653       C  0.68268571  0.97377865  0.36546933    -0.05920
C1654       C  0.65113434  0.00547993  0.36609919     0.00010
C1655       C  0.65067976  0.53646736  0.33390296    -0.08570
C1656       C  0.67844220  0.53156936  0.29926159    -0.05940
C1657       C  0.70813451  0.99816002  0.29652548    -0.00010
C1658       C  0.71133711  0.96906330  0.33108134    -0.08470
C1659       C  0.74106220  0.93087396  0.33318648     0.61900
H1660       H  0.68321536  0.95074623  0.39098094     0.12600
H1661       H  0.67647767  0.55389025  0.27320375     0.12610
C1662       C  0.62142534  0.57499497  0.33617810     0.62140
F1663       F  0.76749221  0.93529524  0.36830950    -0.23030
F1664       F  0.76634611  0.42523112  0.29781717    -0.20360
F1665       F  0.71704521  0.89421042  0.33752807    -0.20030
F1666       F  0.62300346  0.59328637  0.37651293    -0.20090
F1667       F  0.58060115  0.06392636  0.32845836    -0.20410
F1668       F  0.63308565  0.60578553  0.30708012    -0.23080
C1669       C  0.63628257  0.96758224  0.17878637    -0.05920
C1670       C  0.64289714  0.49654627  0.14617743     0.00010
C1671       C  0.67898628  0.52378166  0.14773933    -0.08570
C1672       C  0.70526006  0.52285885  0.18409147    -0.05940
C1673       C  0.70034738  0.49207542  0.21614205    -0.00010
C1674       C  0.66470416  0.96362874  0.21312704    -0.08470
C1675       C  0.65453617  0.92925608  0.24552145     0.61900
H1676       H  0.60833803  0.94725756  0.17680408     0.12600
H1677       H  0.72989670  0.54670623  0.18771419     0.12610
C1678       C  0.69030748  0.55339053  0.11135431     0.62140
F1679       F  0.62658151  0.89902059  0.22910453    -0.23030
F1680       F  0.63546804  0.44669358  0.28087289    -0.20360
F1681       F  0.69093549  0.90777580  0.25710033    -0.20030
F1682       F  0.65586468  0.57884623  0.10123491    -0.20090
F1683       F  0.70186019  0.02952915  0.07594888    -0.20410
F1684       F  0.72434593  0.57978889  0.12154907    -0.23080
C1685       C  0.82560578  0.97688853  0.14077889    -0.05920
C1686       C  0.85583314  0.50949229  0.13914566     0.00010
C1687       C  0.85391693  0.54255719  0.17007787    -0.08570
C1688       C  0.82287438  0.54021468  0.20259194    -0.05940
C1689       C  0.79631884  0.50422206  0.20751966     0.00050
C1690       C  0.79834449  0.97147193  0.17590227    -0.08470
C1691       C  0.77622396  0.92859589  0.17823476     0.61900
H1692       H  0.82609207  0.95294769  0.11619774     0.12600
H1693       H  0.82127082  0.56522795  0.22662389     0.12610
C1694       C  0.88436279  0.58009741  0.16879582     0.62140
F1695       F  0.80528938  0.39626200  0.16846223    -0.23030
F1696       F  0.74325249  0.42696752  0.14920646    -0.20360
F1697       F  0.76043021  0.92000728  0.21790441    -0.20030
F1698       F  0.88272393  0.59870190  0.12903851    -0.20090
F1699       F  0.92555662  0.06653121  0.17675598    -0.20410
F1700       F  0.87414773  0.11085518  0.19913728    -0.23080
C1701       C  0.48209469  0.66983845  0.28971515    -0.05920
C1702       C  0.98937430  0.71188921  0.30417753     0.00010
C1703       C  0.98859578  0.71707351  0.34934057    -0.08570
C1704       C  0.00205086  0.68345564  0.37480287    -0.05940
C1705       C  0.99846974  0.64121589  0.36037075    -0.00010
C1706       C  0.48457000  0.63443172  0.31728454    -0.08470
C1707       C  0.46930818  0.59138041  0.30069279     0.61900
H1708       H  0.47102620  0.66423220  0.25795223     0.12600
H1709       H  0.00713982  0.69013917  0.40842337     0.12610
C1710       C  0.95685139  0.74678893  0.37090619     0.62140
F1711       F  0.45208427  0.59382567  0.26013816    -0.23030
F1712       F  0.00346359  0.56291049  0.29873971    -0.20360
F1713       F  0.43774094  0.57616318  0.32732920    -0.20030
F1714       F  0.92697781  0.76085618  0.34190723    -0.20090
F1715       F  0.47785067  0.78062789  0.39007573    -0.20410
F1716       F  0.93439377  0.72560149  0.40239547    -0.23080
C1717       C  0.54408200  0.83595851  0.34956862    -0.05920
C1718       C  0.00762076  0.86115968  0.35580577     0.00010
C1719       C  0.97077408  0.85346013  0.33100134    -0.08570
C1720       C  0.97160881  0.82049062  0.30053998    -0.05940
C1721       C  0.00605903  0.79191740  0.29752092    -0.00010
C1722       C  0.54332475  0.79986560  0.32250908    -0.08470
C1723       C  0.58178604  0.77037404  0.32481577     0.61900
H1724       H  0.57237188  0.84259523  0.36845037     0.12600
H1725       H  0.94236308  0.81251273  0.28415806     0.12610
C1726       C  0.92851055  0.87445724  0.34196122     0.62140
F1727       F  0.61791316  0.79221558  0.31206501    -0.23030
F1728       F  0.57799234  0.73409734  0.29982855    -0.20360
F1729       F  0.58737426  0.75763261  0.36654221    -0.20030
F1730       F  0.93333498  0.91769510  0.34634252    -0.20090
F1731       F  0.91435617  0.85905705  0.38025375    -0.20410
F1732       F  0.89748685  0.86647921  0.31142127    -0.23080
C1733       C  0.96788854  0.81509945  0.19895926    -0.05920
C1734       C  0.00485589  0.79036416  0.20473547     0.00010
C1735       C  0.54206796  0.80125476  0.18088098    -0.08570
C1736       C  0.53975289  0.83436625  0.15073172    -0.05940
C1737       C  0.00183108  0.85691898  0.14359524    -0.00010
C1738       C  0.96534506  0.84730824  0.16819957    -0.08470
C1739       C  0.92263154  0.86765038  0.15845034     0.61900
H1740       H  0.93930196  0.80645980  0.21586589     0.12600
H1741       H  0.56745474  0.84218999  0.13157043     0.12610
C1742       C  0.58404655  0.77781288  0.18549914     0.62140
F1743       F  0.89037596  0.85309811  0.18481747    -0.23030
F1744       F  0.91195989  0.85744833  0.11686436    -0.20360
F1745       F  0.92508158  0.91141865  0.16325383    -0.20030
F1746       F  0.58295749  0.74062296  0.16172367    -0.20090
F1747       F  0.59161531  0.76848710  0.22759317    -0.20410
F1748       F  0.61804009  0.80215395  0.17134724    -0.23080
C1749       C  0.96611572  0.66722154  0.14744786    -0.05920
C1750       C  0.00113916  0.63950161  0.14699592     0.00010
C1751       C  0.53371459  0.64463017  0.17809731    -0.08570
C1752       C  0.53293706  0.68126132  0.20458855    -0.05940
C1753       C  0.99843591  0.71003377  0.20389968    -0.00010
C1754       C  0.96264782  0.70037597  0.17765346    -0.08470
C1755       C  0.91951430  0.72180685  0.18317962     0.61900
H1756       H  0.94037940  0.66175876  0.12491057     0.12600
H1757       H  0.55872938  0.68729019  0.22683643     0.12610
C1758       C  0.56834114  0.61136343  0.18401645     0.62140
F1759       F  0.88677721  0.69433100  0.17170861    -0.23030
F1760       F  0.91711814  0.75705609  0.15746428    -0.20360
F1761       F  0.91267287  0.73356295  0.22529683    -0.20030
F1762       F  0.58818229  0.60234928  0.14572785    -0.20090
F1763       F  0.55021443  0.57440556  0.19937045    -0.20410
F1764       F  0.59926803  0.62482603  0.21270584    -0.23080
C1765       C  0.00078749  0.74980822  0.73052659     0.00420
C1766       C  0.49789961  0.75037455  0.77486814     0.00420
O1767       O  0.00157311  0.61872275  0.57422805    -0.86630
O1768       O  0.00148890  0.87752665  0.57054781    -0.86790
O1769       O  0.92918679  0.50462956  0.61999824    -0.88460
O1770       O  0.57065076  0.49773828  0.62313841    -0.87220
O1771       O  0.62431826  0.49718574  0.57317498    -0.86810
O1772       O  0.87858576  0.50339832  0.56687620    -0.88180
O1773       O  0.00014088  0.92928043  0.62299950    -0.86660
O1774       O  0.00242730  0.56681226  0.62531743    -0.86240
Zr1775     Zr  0.00045077  0.49835318  0.58790655     2.84310
O1776       O  0.54415887  0.95476578  0.54546267    -1.08220
O1777       O  0.95851710  0.54116475  0.54380141    -1.08950
C1778       C  0.00211928  0.60603706  0.61339381     1.06480
C1779       C  0.00108539  0.89004819  0.61010753     1.06420
C1780       C  0.89015254  0.50616877  0.60644930     1.09400
C1781       C  0.61054639  0.49767547  0.61183241     1.07180
H1782       H  0.93805686  0.93868399  0.56042905     0.32740
O1783       O  0.95666680  0.95612775  0.54329016    -1.29170
H1784       H  0.56277287  0.55877701  0.56492753     0.32420
O1785       O  0.54527764  0.54107905  0.54658229    -1.30850
O1786       O  0.00341469  0.88019937  0.92911270    -0.86620
O1787       O  0.00131179  0.61881041  0.93316502    -0.88120
O1788       O  0.87925393  0.93134184  0.49486173    -0.86700
O1789       O  0.62181906  0.92454088  0.50071194    -0.86750
O1790       O  0.62358664  0.56879255  0.00390250    -0.86460
O1791       O  0.88048247  0.56854596  0.00150631    -0.86270
O1792       O  0.94040355  0.00107547  0.87827564    -0.86640
O1793       O  0.57824070  0.00368023  0.88536019    -0.86100
O1794       O  0.88491114  0.00251331  0.92534159    -0.87160
O1795       O  0.62902688  0.99991390  0.93785136    -0.86320
O1796       O  0.93039480  0.87891781  0.49617805    -0.86720
O1797       O  0.93261866  0.61907534  0.00685442    -0.86440
O1798       O  0.57138216  0.62025900  0.00331949    -0.86090
O1799       O  0.56804216  0.87534170  0.50130538    -0.86500
O1800       O  0.01018207  0.93255134  0.87887062    -0.86800
O1801       O  0.00575933  0.56808051  0.88061918    -0.88140
Zr1802     Zr  0.00074226  0.91289706  0.50071286     2.83100
Zr1803     Zr  0.00278046  0.58471377  0.00342760     2.83500
Zr1804     Zr  0.91586318  0.49968180  0.99805486     2.84090
Zr1805     Zr  0.58982260  0.99736909  0.50449222     2.83360
Zr1806     Zr  0.00700567  0.00008398  0.91675554     2.84220
O1807       O  0.54866319  0.54237654  0.96166235    -1.08710
O1808       O  0.96060587  0.95668647  0.95600369    -1.08210
C1809       C  0.00742773  0.89337136  0.89030311     1.06450
C1810       C  0.00233022  0.60704719  0.89332882     1.09070
C1811       C  0.89118280  0.89199706  0.49467794     1.06630
C1812       C  0.60775982  0.88541475  0.49933786     1.06980
C1813       C  0.61072248  0.60819358  0.00358245     1.06570
C1814       C  0.89289382  0.60743453  0.00594790     1.06120
C1815       C  0.90045425  0.00235645  0.88683899     1.06550
C1816       C  0.61728287  0.00318360  0.89865037     1.06060
H1817       H  0.94389468  0.56091178  0.93989938     0.32740
O1818       O  0.96107373  0.54288113  0.95781953    -1.29810
H1819       H  0.56518181  0.93749920  0.94205118     0.32760
O1820       O  0.54710056  0.95516592  0.95988220    -1.31190
C1821       C  0.77366278  0.50088331  0.75007876     0.00420
C1822       C  0.73017572  0.49388930  0.75427724     0.00420
C1823       C  0.73162789  0.74809593  0.98451494     0.00420
C1824       C  0.77480860  0.74966670  0.49644221     0.00420
C1825       C  0.86098401  0.82715741  0.96126455    -0.05920
C1826       C  0.85733247  0.85903314  0.49245229     0.00010
C1827       C  0.82314129  0.85732185  0.52196421    -0.08570
C1828       C  0.79559929  0.82197706  0.52099628    -0.05940
C1829       C  0.79957930  0.78971135  0.48994765    -0.00010
C1830       C  0.83153492  0.79351454  0.95793608    -0.08470
C1831       C  0.83474287  0.76324983  0.91984981     0.61900
H1832       H  0.88819715  0.82787050  0.94036737     0.12600
H1833       H  0.77103069  0.81860205  0.54510971     0.12610
C1834       C  0.81686592  0.89156228  0.55543714     0.62140
F1835       F  0.86457621  0.77727728  0.89085732    -0.23030
F1836       F  0.79646078  0.76127645  0.89831703    -0.20360
F1837       F  0.84628527  0.72284868  0.43248093    -0.20030
F1838       F  0.80554488  0.92940246  0.03630968    -0.20090
F1839       F  0.85453138  0.89699811  0.57756912    -0.20410
F1840       F  0.78505278  0.88107894  0.58412801    -0.23080
C1841       C  0.87437209  0.68382537  0.01525186    -0.05920
C1842       C  0.85969741  0.64177883  0.01077075     0.00010
C1843       C  0.81494023  0.63454116  0.51672719    -0.08570
C1844       C  0.78723616  0.67019071  0.51909761    -0.05940
C1845       C  0.80200618  0.71241510  0.01468196    -0.00010
C1846       C  0.84631378  0.71755609  0.02396024    -0.08470
C1847       C  0.86298365  0.75051473  0.05551083     0.61900
H1848       H  0.90835831  0.69017314  0.01743348     0.12600
H1849       H  0.75475964  0.66447808  0.52763364     0.12610
C1850       C  0.79585735  0.59026527  0.52195610     0.62140
F1851       F  0.88924461  0.73086588  0.58475387    -0.23030
F1852       F  0.83010500  0.76917282  0.57863571    -0.20360
F1853       F  0.88681581  0.78098723  0.03493810    -0.20030
F1854       F  0.81533746  0.57002732  0.55574551    -0.20090
F1855       F  0.80125090  0.56657936  0.98498163    -0.20410
F1856       F  0.75249903  0.59170443  0.03058237    -0.23080
C1857       C  0.68301433  0.85824102  0.49625072    -0.05920
C1858       C  0.63911728  0.84933972  0.49253020     0.00010
C1859       C  0.62724368  0.80823191  0.97584355    -0.08570
C1860       C  0.65970830  0.77934131  0.96358427    -0.05940
C1861       C  0.70332559  0.78711781  0.47171525    -0.00010
C1862       C  0.71349322  0.83106701  0.47706585    -0.08470
C1863       C  0.73709135  0.85433004  0.44202601     0.61900
H1864       H  0.69277231  0.89048442  0.50432421     0.12600
H1865       H  0.65072064  0.74850080  0.95086876     0.12610
C1866       C  0.58115688  0.79283997  0.97248193     0.62140
F1867       F  0.70762147  0.87506850  0.41678457    -0.23030
F1868       F  0.75950549  0.82729152  0.91581406    -0.20360
F1869       F  0.76439631  0.88461098  0.45903461    -0.20030
F1870       F  0.55893635  0.81758366  0.94408529    -0.20090
F1871       F  0.56188055  0.79469153  0.51218774    -0.20410
F1872       F  0.57820443  0.75105905  0.95808978    -0.23080
C1873       C  0.67559778  0.70963881  0.02453513    -0.05920
C1874       C  0.70566547  0.70793728  0.99114419     0.00010
C1875       C  0.70495302  0.67164139  0.46301888    -0.08570
C1876       C  0.67513569  0.63894382  0.47024085    -0.05940
C1877       C  0.64350766  0.64246327  0.00167211    -0.00010
C1878       C  0.64244022  0.67955997  0.02804131    -0.08470
C1879       C  0.60548397  0.68908059  0.05805833     0.61900
H1880       H  0.67582755  0.73750797  0.04524470     0.12600
H1881       H  0.67524217  0.61104275  0.44947603     0.12610
C1882       C  0.73462075  0.66450704  0.42560704     0.62140
F1883       F  0.61311761  0.72482193  0.08311431    -0.23030
F1884       F  0.59875832  0.65507664  0.58458870    -0.20360
F1885       F  0.56880596  0.69667643  0.03475815    -0.20030
F1886       F  0.75537982  0.62586407  0.42987968    -0.20090
F1887       F  0.76510183  0.69545490  0.92266432    -0.20410
F1888       F  0.71121177  0.66365030  0.88831073    -0.23080
C1889       C  0.83185015  0.52742658  0.85608161    -0.05920
C1890       C  0.87024338  0.00463701  0.84989070     0.00010
C1891       C  0.87736373  0.98615269  0.80839429    -0.08570
C1892       C  0.84158843  0.97920850  0.78271046    -0.05940
C1893       C  0.80416022  0.00345150  0.78741775    -0.00010
C1894       C  0.80194577  0.53217105  0.82279325    -0.08470
C1895       C  0.77373393  0.57133729  0.82487358     0.61900
H1896       H  0.82756125  0.54583692  0.88526824     0.12600
H1897       H  0.84532970  0.95914745  0.75455136     0.12610
C1898       C  0.91942246  0.97980830  0.78391592     0.62140
F1899       F  0.79852794  0.60659290  0.83481137    -0.23030
F1900       F  0.74341036  0.06665968  0.85656973    -0.20360
F1901       F  0.75405385  0.57951435  0.78641679    -0.20030
F1902       F  0.92177144  0.93869232  0.76771515    -0.20090
F1903       F  0.95633721  0.48795200  0.80613850    -0.20410
F1904       F  0.91927040  0.00710140  0.74953422    -0.23080
C1905       C  0.68267677  0.97369317  0.86545737    -0.05920
C1906       C  0.65107534  0.00534623  0.86601674     0.00010
C1907       C  0.65082563  0.53664486  0.83406864    -0.08570
C1908       C  0.67851032  0.53171456  0.79936774    -0.05940
C1909       C  0.70810938  0.99797669  0.79647211    -0.00010
C1910       C  0.71132732  0.96893731  0.83107360    -0.08470
C1911       C  0.74106733  0.93076412  0.83323373     0.61900
H1912       H  0.68324172  0.95071877  0.89102015     0.12600
H1913       H  0.67657204  0.55408091  0.77334722     0.12610
C1914       C  0.62182543  0.57535260  0.83657284     0.62140
F1915       F  0.76747683  0.93522951  0.86836728    -0.23030
F1916       F  0.76628683  0.42526718  0.79774898    -0.20360
F1917       F  0.71706008  0.89409683  0.83759524    -0.20030
F1918       F  0.62379648  0.59357761  0.87691809    -0.20090
F1919       F  0.58037394  0.06331045  0.82785789    -0.20410
F1920       F  0.63348917  0.60610380  0.80743420    -0.23080
C1921       C  0.63630963  0.96738586  0.67875782    -0.05920
C1922       C  0.64287533  0.49662704  0.64615930     0.00010
C1923       C  0.67896797  0.52385760  0.64772481    -0.08570
C1924       C  0.70522304  0.52295568  0.68409482    -0.05940
C1925       C  0.70028341  0.49220065  0.71617063    -0.00010
C1926       C  0.66476727  0.96339126  0.71306501    -0.08470
C1927       C  0.65464814  0.92897392  0.74542542     0.61900
H1928       H  0.60836573  0.94705937  0.67677849     0.12600
H1929       H  0.72987235  0.54679151  0.68770699     0.12610
C1930       C  0.69031344  0.55343589  0.61132295     0.62140
F1931       F  0.62677210  0.89869496  0.72895423    -0.23030
F1932       F  0.63540580  0.44693034  0.78094343    -0.20360
F1933       F  0.69108239  0.90756109  0.75702429    -0.20030
F1934       F  0.65588276  0.57889541  0.60117208    -0.20090
F1935       F  0.70182839  0.02941936  0.57593565    -0.20410
F1936       F  0.72435698  0.57982986  0.62151180    -0.23080
C1937       C  0.82563328  0.97679072  0.64077820    -0.05920
C1938       C  0.85580653  0.50950336  0.63915077     0.00010
C1939       C  0.85389014  0.54257988  0.67007014    -0.08570
C1940       C  0.82284336  0.54025448  0.70258097    -0.05940
C1941       C  0.79627454  0.50427285  0.70751354     0.00050
C1942       C  0.79839584  0.97133765  0.67591162    -0.08470
C1943       C  0.77633190  0.92843338  0.67826444     0.61900
H1944       H  0.82613198  0.95285866  0.61619230     0.12600
H1945       H  0.82124693  0.56527273  0.72660820     0.12610
C1946       C  0.88434161  0.58011465  0.66877851     0.62140
F1947       F  0.80518395  0.39630153  0.66852188    -0.23030
F1948       F  0.74321558  0.42704687  0.64910877    -0.20360
F1949       F  0.76065972  0.91980001  0.71797315    -0.20030
F1950       F  0.88271384  0.59870220  0.62901251    -0.20090
F1951       F  0.92550824  0.06653180  0.67673737    -0.20410
F1952       F  0.87405501  0.11080234  0.69912858    -0.23080
C1953       C  0.48222165  0.66979262  0.78970394    -0.05920
C1954       C  0.98933851  0.71188927  0.80418644     0.00010
C1955       C  0.98856620  0.71707359  0.84934869    -0.08570
C1956       C  0.00202939  0.68345702  0.87480641    -0.05940
C1957       C  0.99845799  0.64121765  0.86036986    -0.00010
C1958       C  0.48474293  0.63439045  0.81727241    -0.08470
C1959       C  0.46966318  0.59129223  0.80062515     0.61900
H1960       H  0.47120742  0.66415753  0.75793043     0.12600
H1961       H  0.00712322  0.69014011  0.90842623     0.12610
C1962       C  0.95682897  0.74679233  0.87092115     0.62140
F1963       F  0.45260222  0.59367784  0.75999737    -0.23030
F1964       F  0.00344393  0.56291282  0.79873378    -0.20360
F1965       F  0.43802356  0.57600540  0.82713524    -0.20030
F1966       F  0.92695272  0.76086546  0.84192818    -0.20090
F1967       F  0.47771624  0.78062181  0.89003134    -0.20410
F1968       F  0.93437314  0.72560649  0.90241252    -0.23080
C1969       C  0.54407572  0.83592273  0.84959386    -0.05920
C1970       C  0.00761076  0.86115745  0.85581559     0.00010
C1971       C  0.97076488  0.85346438  0.83100838    -0.08570
C1972       C  0.97159108  0.82048959  0.80055339    -0.05940
C1973       C  0.00603787  0.79191306  0.79753217    -0.00010
C1974       C  0.54331604  0.79983110  0.82253095    -0.08470
C1975       C  0.58177533  0.77033670  0.82483434     0.61900
H1976       H  0.57236422  0.84255336  0.86847924     0.12600
H1977       H  0.94234260  0.81251497  0.78417539     0.12610
C1978       C  0.92851538  0.87450146  0.84194076     0.62140
F1979       F  0.61790351  0.79217786  0.81208556    -0.23030
F1980       F  0.57798036  0.73406331  0.79984259    -0.20360
F1981       F  0.58736274  0.75758994  0.86655912    -0.20030
F1982       F  0.93337620  0.91773831  0.84626557    -0.20090
F1983       F  0.91434717  0.85916383  0.88025436    -0.20410
F1984       F  0.89748748  0.86651091  0.81140818    -0.23080
C1985       C  0.96788771  0.81509870  0.69897926    -0.05920
C1986       C  0.00484742  0.79035115  0.70474553     0.00010
C1987       C  0.54206704  0.80124448  0.68088377    -0.08570
C1988       C  0.53974264  0.83434072  0.65071966    -0.05940
C1989       C  0.00182372  0.85688998  0.64359179    -0.00010
C1990       C  0.96534622  0.84730604  0.66821955    -0.08470
C1991       C  0.92263991  0.86767752  0.65849949     0.61900
H1992       H  0.93930264  0.80646860  0.71589272     0.12600
H1993       H  0.56744002  0.84215398  0.63154720     0.12610
C1994       C  0.58405078  0.77781311  0.68550403     0.62140
F1995       F  0.89038854  0.85313268  0.68487581    -0.23030
F1996       F  0.91194205  0.85750025  0.61691514    -0.20360
F1997       F  0.92511742  0.91144225  0.66332123    -0.20030
F1998       F  0.58299691  0.74065788  0.66167146    -0.20090
F1999       F  0.59159176  0.76842600  0.72758907    -0.20410
F2000       F  0.61804261  0.80219474  0.67141770    -0.23080
C2001       C  0.96608740  0.66722089  0.64745947    -0.05920
C2002       C  0.00110737  0.63949653  0.64700758     0.00010
C2003       C  0.53372082  0.64464337  0.67804285    -0.08570
C2004       C  0.53295766  0.68127732  0.70453078    -0.05940
C2005       C  0.99841196  0.71002518  0.70391428    -0.00010
C2006       C  0.96262389  0.70037513  0.67766564    -0.08470
C2007       C  0.91949635  0.72181899  0.68318693     0.61900
H2008       H  0.94035181  0.66176366  0.62492016     0.12600
H2009       H  0.55876216  0.68730758  0.72676399     0.12610
C2010       C  0.56834211  0.61136970  0.68395630     0.62140
F2011       F  0.88675209  0.69435491  0.67170840    -0.23030
F2012       F  0.91711674  0.75707172  0.65747468    -0.20360
F2013       F  0.91265182  0.73357325  0.72530415    -0.20030
F2014       F  0.58816984  0.60234390  0.64566343    -0.20090
F2015       F  0.55021065  0.57441859  0.69932114    -0.20410
F2016       F  0.59928007  0.62482840  0.71263585    -0.23080
loop_ 
_geom_bond_atom_site_label_1 
_geom_bond_atom_site_label_2 
_geom_bond_distance 
_geom_bond_site_symmetry_2 
_ccdc_geom_bond_type 
C1          C222   1.520       .  S
C1          C241   1.496       .  S
C1         C1010   1.392       .  D
C2         C1198   1.549       .  S
C2         C1217   1.500   1_655  S
C2         C1009   1.392   1_655  D
O3           C14   1.295       .  A
O3         Zr291   2.452       .  S
O4           C15   1.297       .  A
O4          Zr38   2.465       .  S
O5           C16   1.294       .  A
O5          Zr11   2.452   1_545  S
O6           C17   1.297       .  A
O6        Zr1019   2.459       .  S
O7           C17   1.285       .  A
O7         Zr545   2.411       .  S
O8           C16   1.294       .  A
O8         Zr292   2.452   1_544  S
O9           C15   1.292       .  A
O9         Zr515   2.441       .  S
O10          C14   1.290       .  A
O10         Zr11   2.437   1_545  S
Zr11       O1014   2.459       .  S
Zr11        O513   2.442       .  S
Zr11         O13   2.341   1_565  S
Zr11       O1524   2.338       .  S
Zr11       O1029   2.340   1_565  S
Zr11        O523   2.356       .  S
O12         Zr41   2.348       .  S
O12       Zr1523   2.338       .  S
O12       Zr1046   2.346       .  S
O13        Zr291   2.328       .  S
O13        Zr292   2.344   1_544  S
C14         C238   1.479       .  S
C15         C225   1.486       .  S
C16         C174   1.487       .  S
C17         C158   1.478       .  S
H18          O19   0.966       .  S
O19         Zr38   2.340       .  S
O19        Zr515   2.356       .  S
O19        Zr796   2.357   1_554  S
H20          O21   0.966       .  S
O21       Zr1019   2.340   1_545  S
O21       Zr1299   2.349       .  S
O21        Zr545   2.350   1_545  S
O22          C45   1.295       .  A
O22        Zr290   2.459       .  S
O23          C46   1.298       .  A
O23         Zr39   2.460       .  S
O24          C47   1.290       .  A
O24        Zr796   2.432       .  S
O25          C48   1.305   1_554  A
O25         Zr41   2.496       .  S
O26          C49   1.300       .  A
O26        Zr797   2.478   1_545  S
O27          C50   1.287       .  A
O27         Zr40   2.429   1_545  S
O28          C51   1.278       .  A
O28         Zr42   2.409       .  S
O29          C52   1.291       .  A
O29       Zr1050   2.439       .  S
O30          C51   1.301       .  A
O30        Zr544   2.480       .  S
O31          C52   1.288       .  A
O31        Zr293   2.422       .  S
O32          C47   1.294       .  A
O32         Zr38   2.449   1_556  S
O33          C50   1.296       .  A
O33         Zr39   2.447       .  S
O34          C49   1.288       .  A
O34       Zr1047   2.419       .  S
O35          C48   1.284   1_554  A
O35       Zr1046   2.413       .  S
O36          C45   1.287       .  A
O36         Zr42   2.420       .  S
O37          C46   1.286       .  A
O37        Zr546   2.427       .  S
Zr38        O274   2.459   1_554  S
Zr38       O1043   2.413       .  S
Zr38       O1020   2.346       .  S
Zr38        O296   2.339   1_554  S
Zr38       O1316   2.353   1_554  S
Zr39        O255   2.452       .  S
Zr39       O1042   2.419       .  S
Zr39         O54   2.331       .  S
Zr39        O265   2.328       .  S
Zr39       O1281   2.349       .  S
Zr39       O1051   2.344       .  S
Zr40        O260   2.452   1_565  S
Zr40        O780   2.432       .  S
Zr40        O534   2.480   1_565  S
Zr40         O54   2.338   1_565  S
Zr40        O265   2.344   1_565  S
Zr40        O775   2.357       .  S
Zr40        O548   2.340       .  S
Zr41        O511   2.411       .  S
Zr41        O782   2.478       .  S
Zr41        O283   2.422   1_554  S
Zr41        O525   2.350       .  S
Zr41        O799   2.345   1_554  S
Zr41        O308   2.336   1_554  S
Zr42       O1037   2.438       .  S
Zr42        O541   2.428       .  S
Zr42         O44   2.347       .  S
Zr42       O1555   2.324       .  S
Zr42       O1064   2.331       .  S
Zr42        O558   2.342       .  S
O43       Zr1047   2.344       .  S
O43        Zr797   2.345   1_545  S
O43       Zr1554   2.324       .  S
O44        Zr290   2.339       .  S
O44        Zr544   2.340       .  S
C45         C206   1.472       .  S
C46         C193   1.502       .  S
C47          C62   1.482       .  S
C48          C94   1.511       .  S
C49         C113   1.488       .  S
C50          C78   1.503       .  S
C51         C126   1.498       .  S
C52         C142   1.472       .  S
H53          O54   0.965       .  S
O54        Zr546   2.342       .  S
H55          O56   0.965       .  S
O56       Zr1298   2.353       .  S
O56        Zr293   2.337       .  S
O56       Zr1050   2.331       .  S
C57         C177   1.514       .  S
C57         C633   1.512       .  S
C57          C58   1.385   1_545  D
C58         C161   1.518       .  S
C58         C649   1.495       .  S
C59         C110   1.516       .  S
C59         C349   1.566       .  S
C59         C312   1.404       .  D
C60          C65   1.492       .  S
C60         C333   1.559   1_556  S
C60         C311   1.404       .  D
C61          C66   1.405       .  A
C61         C314   1.397       .  A
C61          H68   1.074       .  S
C62          C63   1.415   1_556  A
C62         C313   1.397       .  A
C63          C64   1.405       .  A
C63          C70   1.506       .  S
C64          C65   1.402   1_554  A
C64          H69   1.083       .  S
C65         C318   1.422       .  A
C66         C317   1.422       .  A
C66          C67   1.520       .  S
C67          F71   1.378       .  S
C67          F72   1.376       .  S
C67         F325   1.379       .  S
C70          F75   1.378       .  S
C70          F76   1.383       .  S
C70         F326   1.383       .  S
F73         C319   1.379       .  S
F74         C322   1.383       .  S
C77          C78   1.403       .  A
C77          C82   1.399       .  A
C77          H84   1.084       .  S
C78         C331   1.430       .  A
C79          C80   1.416       .  A
C79         C330   1.430       .  A
C79          C86   1.523       .  S
C80         C333   1.411       .  A
C80          H85   1.066       .  S
C81         C312   1.559       .  S
C81          C82   1.425       .  A
C81         C332   1.411       .  A
C82          C83   1.516       .  S
C83          F89   1.378       .  S
C83         F339   1.382       .  S
C83         F340   1.381       .  S
C86          F90   1.383       .  S
C86         F343   1.383   1_554  S
C86         F344   1.384       .  S
F87         C335   1.382       .  S
F88         C335   1.381       .  S
F91         C338   1.383       .  S
F92         C338   1.384       .  S
C93          C94   1.406       .  A
C93          C98   1.409       .  A
C93         H100   1.084   1_556  S
C94         C347   1.437       .  A
C95          C96   1.411       .  A
C95         C346   1.437       .  A
C95         C102   1.524       .  S
C96         C349   1.410       .  A
C96         H101   1.080       .  S
C97         C311   1.566       .  S
C97          C98   1.424       .  A
C97         C348   1.410       .  A
C98          C99   1.517       .  S
C99         F103   1.383       .  S
C99         F105   1.381       .  S
C99         F356   1.369       .  S
C102        F106   1.376       .  S
C102        F108   1.385       .  S
C102        F359   1.383       .  S
F104        C351   1.369       .  S
F107        C354   1.383   1_554  S
C109        C110   1.407       .  A
C109        C114   1.408       .  A
C109        H116   1.083       .  S
C110        C363   1.431       .  A
C111        C112   1.407       .  A
C111        C362   1.431       .  A
C111        C118   1.509       .  S
C112        C365   1.399   1_556  A
C112        H117   1.085       .  S
C113        C114   1.421       .  A
C113        C364   1.399       .  A
C114        C115   1.517       .  S
C115        F119   1.383       .  S
C115        F121   1.383       .  S
C115        F372   1.377       .  S
C118        F122   1.383       .  S
C118        F375   1.364       .  S
C118        F376   1.383       .  S
F120        C367   1.377       .  S
F123        C370   1.364       .  S
F124        C370   1.383       .  S
C125        C130   1.411       .  A
C125        C630   1.410       .  A
C125        H132   1.085       .  S
C126        C127   1.435       .  A
C126        C629   1.410       .  A
C127        C128   1.395       .  A
C127        C134   1.534       .  S
C128        C129   1.403       .  A
C128        H133   1.085       .  S
C129        C561   1.512       .  S
C129        C634   1.423       .  A
C130        C633   1.423       .  A
C130        C131   1.514       .  S
C131        F135   1.384       .  S
C131        F137   1.381       .  S
C131        F640   1.382       .  S
C134        F138   1.383       .  S
C134        F140   1.384       .  S
C134        F643   1.372       .  S
F136        C635   1.382       .  S
F139        C638   1.372       .  S
C141        C142   1.401       .  A
C141        C146   1.408       .  A
C141        H148   1.084       .  S
C142        C647   1.410       .  A
C143        C144   1.397       .  A
C143        C646   1.410       .  A
C143        C150   1.517       .  S
C144        C649   1.408   1_545  A
C144        H149   1.084       .  S
C145        C562   1.495       .  S
C145        C146   1.428       .  A
C145        C648   1.408       .  A
C146        C147   1.519       .  S
C147        F151   1.383       .  S
C147        F153   1.382       .  S
C147        F656   1.371       .  S
C150        F154   1.383       .  S
C150        F156   1.385       .  S
C150        F659   1.376       .  S
F152        C651   1.371       .  S
F155        C654   1.376       .  S
C157        C162   1.403       .  A
C157        C662   1.394       .  A
C157        H164   1.084       .  S
C158        C159   1.417   1_565  A
C158        C661   1.394       .  A
C159        C160   1.406       .  A
C159        C166   1.521       .  S
C160        C161   1.410   1_545  A
C160        H165   1.080       .  S
C161        C666   1.435       .  A
C162        C665   1.435       .  A
C162        C163   1.523       .  S
C163        F167   1.386       .  S
C163        F169   1.374       .  S
C163        F672   1.380       .  S
C166        F170   1.380       .  S
C166        F172   1.385       .  S
C166        F675   1.383       .  S
F168        C667   1.380       .  S
F171        C670   1.383       .  S
C173        C178   1.404       .  A
C173        C678   1.396       .  A
C173        H180   1.070       .  S
C174        C175   1.413       .  A
C174        C677   1.396   1_545  A
C175        C176   1.410       .  A
C175        C182   1.516       .  S
C176        C177   1.412       .  A
C176        H181   1.083       .  S
C177        C682   1.425   1_545  A
C178        C681   1.425       .  A
C178        C179   1.516       .  S
C179        F185   1.367       .  S
C179        F687   1.385       .  S
C179        F688   1.383       .  S
C182        F186   1.383       .  S
C182        F691   1.381       .  S
C182        F692   1.384       .  S
F183        C683   1.385       .  S
F184        C683   1.383       .  S
F187        C686   1.381       .  S
F188        C686   1.384       .  S
C189        C194   1.417       .  A
C189       C1198   1.410       .  A
C189        H196   1.067       .  S
C190       C1010   1.549       .  S
C190        C191   1.423       .  A
C190       C1197   1.410       .  A
C191        C192   1.395       .  A
C191        C198   1.515       .  S
C192        C193   1.400       .  A
C192        H197   1.084       .  S
C193       C1202   1.432       .  A
C194       C1201   1.432       .  A
C194        C195   1.520       .  S
C195        F199   1.384       .  S
C195        F201   1.381       .  S
C195       F1208   1.379   1_655  S
C198        F202   1.380       .  S
C198        F204   1.387       .  S
C198       F1211   1.378       .  S
F200       C1203   1.379       .  S
F203       C1206   1.378       .  S
C205        C210   1.408       .  A
C205       C1214   1.400       .  A
C205        H212   1.084       .  S
C206        C207   1.410       .  A
C206       C1213   1.400       .  A
C207        C208   1.400       .  A
C207        C214   1.515       .  S
C208        C209   1.404       .  A
C208        H213   1.078       .  S
C209       C1010   1.499       .  S
C209       C1218   1.426       .  A
C210       C1217   1.426       .  A
C210        C211   1.520       .  S
C211        F215   1.383       .  S
C211        F216   1.380       .  S
C211        F217   1.383       .  S
C214        F218   1.371       .  S
C214        F219   1.372       .  S
C214        F220   1.385       .  S
C221        C222   1.406       .  A
C221        C226   1.407       .  A
C221        H228   1.075       .  S
C222       C1231   1.427       .  A
C223        C224   1.414       .  A
C223       C1230   1.427       .  A
C223        C230   1.513       .  S
C224       C1233   1.400       .  A
C224        H229   1.084       .  S
C225        C226   1.411       .  A
C225       C1232   1.400       .  A
C226        C227   1.514       .  S
C227        F231   1.385       .  S
C227        F232   1.380       .  S
C227        F233   1.382       .  S
C230        F234   1.378       .  S
C230        F235   1.375       .  S
C230        F236   1.385       .  S
C237        C238   1.399       .  A
C237        C242   1.403       .  A
C237        H244   1.084       .  S
C238       C1247   1.418       .  A
C239        C240   1.411       .  A
C239       C1246   1.418       .  A
C239        C246   1.517       .  S
C240       C1249   1.407   1_455  A
C240        H245   1.082       .  S
C241        C242   1.421       .  A
C241       C1248   1.407       .  A
C242        C243   1.516       .  S
C243        F247   1.384       .  S
C243        F248   1.378       .  S
C243        F249   1.383       .  S
C246        F250   1.377       .  S
C246        F251   1.382       .  S
C246        F252   1.385       .  S
C253        C474   1.520       .  S
C253        C493   1.496       .  S
C253       C1262   1.392       .  D
C254       C1450   1.549       .  S
C254       C1469   1.499   1_655  S
C254       C1261   1.392   1_655  D
O255        C266   1.295       .  A
O256        C267   1.297       .  A
O256       Zr290   2.465       .  S
O257        C268   1.294       .  A
O257       Zr263   2.452   1_545  S
O258        C269   1.297       .  A
O258      Zr1271   2.459       .  S
O259        C269   1.285       .  A
O259       Zr797   2.411       .  S
O260        C268   1.294       .  A
O261        C267   1.292       .  A
O261       Zr767   2.441       .  S
O262        C266   1.290       .  A
O262       Zr263   2.437   1_545  S
Zr263      O1266   2.459       .  S
Zr263       O765   2.441       .  S
Zr263      O1776   2.338       .  S
Zr263       O265   2.341   1_565  S
Zr263      O1281   2.340   1_565  S
Zr263       O775   2.356       .  S
O264      Zr1775   2.338       .  S
O264      Zr1298   2.346       .  S
O264       Zr293   2.348       .  S
C266        C490   1.480       .  S
C267        C477   1.486       .  S
C268        C426   1.487       .  S
C269        C410   1.478       .  S
H270        O271   0.966       .  S
O271       Zr767   2.356       .  S
O271       Zr290   2.340       .  S
O271       Zr544   2.357       .  S
H272        O273   0.966       .  S
O273      Zr1271   2.340   1_545  S
O273      Zr1047   2.349       .  S
O273       Zr797   2.350   1_545  S
O274        C297   1.295       .  A
O275        C298   1.298       .  A
O275       Zr291   2.460   1_556  S
O276        C299   1.290       .  A
O276       Zr544   2.432       .  S
O277        C300   1.305       .  A
O277       Zr293   2.496       .  S
O278        C301   1.300       .  A
O278       Zr545   2.478   1_545  S
O279        C302   1.287       .  A
O279       Zr292   2.429   1_544  S
O280        C303   1.279       .  A
O280       Zr294   2.409       .  S
O281        C304   1.291       .  A
O281      Zr1302   2.439       .  S
O282        C303   1.301       .  A
O282       Zr796   2.480       .  S
O283        C304   1.288       .  A
O284        C299   1.294       .  A
O284       Zr290   2.449       .  S
O285        C302   1.296       .  A
O285       Zr291   2.447       .  S
O286        C301   1.288       .  A
O286      Zr1299   2.419       .  S
O287        C300   1.284       .  A
O287      Zr1298   2.413       .  S
O288        C297   1.287       .  A
O288       Zr294   2.420       .  S
O289        C298   1.286       .  A
O289       Zr798   2.427       .  S
Zr290      O1295   2.413       .  S
Zr290      O1272   2.346       .  S
Zr290      O1064   2.353       .  S
Zr291      O1294   2.419       .  S
Zr291      O1029   2.349       .  S
Zr291      O1303   2.344   1_554  S
Zr291       O306   2.331   1_554  S
Zr292       O528   2.432       .  S
Zr292       O786   2.480   1_565  S
Zr292       O523   2.356   1_556  S
Zr292       O800   2.340       .  S
Zr292       O306   2.338   1_565  S
Zr293       O763   2.411       .  S
Zr293       O530   2.478       .  S
Zr293       O777   2.351       .  S
Zr293       O547   2.345       .  S
Zr294      O1289   2.439       .  S
Zr294       O793   2.427       .  S
Zr294      O1807   2.324       .  S
Zr294       O296   2.347       .  S
Zr294      O1316   2.331       .  S
Zr294       O810   2.342       .  S
O295      Zr1299   2.344   1_556  S
O295       Zr545   2.345   1_546  S
O295      Zr1806   2.324       .  S
O296       Zr796   2.340       .  S
C297        C458   1.472       .  S
C298        C445   1.502       .  S
C299        C314   1.482       .  S
C300        C346   1.511       .  S
C301        C365   1.488       .  S
C302        C330   1.503       .  S
C303        C378   1.498       .  S
C304        C394   1.472       .  S
H305        O306   0.965       .  S
O306       Zr798   2.342       .  S
H307        O308   0.965       .  S
O308      Zr1046   2.353   1_556  S
O308      Zr1302   2.331       .  S
C309        C885   1.512       .  S
C309        C429   1.514       .  S
C309        C310   1.384   1_545  D
C310        C901   1.495       .  S
C310        C413   1.518       .  S
C311        C362   1.516       .  S
C312        C317   1.492       .  S
C313        C318   1.405       .  A
C313        H320   1.074       .  S
C314        C315   1.415       .  A
C315        C316   1.405       .  A
C315        C322   1.506       .  S
C316        C317   1.402       .  A
C316        H321   1.083       .  S
C318        C319   1.520       .  S
C319        F323   1.378       .  S
C319        F324   1.376       .  S
C322        F327   1.378       .  S
C322        F328   1.383       .  S
C329        C330   1.403       .  A
C329        C334   1.399       .  A
C329        H336   1.084       .  S
C331        C332   1.416       .  A
C331        C338   1.523       .  S
C332        H337   1.066       .  S
C333        C334   1.425       .  A
C334        C335   1.516       .  S
C335        F341   1.378       .  S
C338        F342   1.383       .  S
C345        C346   1.406       .  A
C345        C350   1.409       .  A
C345        H352   1.084       .  S
C347        C348   1.411       .  A
C347        C354   1.524       .  S
C348        H353   1.080       .  S
C349        C350   1.424       .  A
C350        C351   1.517       .  S
C351        F355   1.383       .  S
C351        F357   1.381       .  S
C354        F358   1.376       .  S
C354        F360   1.385       .  S
C361        C362   1.407   1_554  A
C361        C366   1.408       .  A
C361        H368   1.083       .  S
C363        C364   1.407       .  A
C363        C370   1.509       .  S
C364        H369   1.085       .  S
C365        C366   1.421       .  A
C366        C367   1.517       .  S
C367        F371   1.383       .  S
C367        F373   1.383       .  S
C370        F374   1.383       .  S
C377        C882   1.410       .  A
C377        C382   1.411       .  A
C377        H384   1.085       .  S
C378        C881   1.410       .  A
C378        C379   1.435       .  A
C379        C380   1.395       .  A
C379        C386   1.534       .  S
C380        C381   1.403       .  A
C380        H385   1.085       .  S
C381        C813   1.512       .  S
C381        C886   1.423       .  A
C382        C885   1.423       .  A
C382        C383   1.514       .  S
C383        F387   1.384       .  S
C383        F892   1.382       .  S
C383        F389   1.381       .  S
C386        F390   1.383       .  S
C386        F895   1.372       .  S
C386        F392   1.384       .  S
F388        C887   1.382       .  S
F391        C890   1.372       .  S
C393        C394   1.401       .  A
C393        C398   1.408       .  A
C393        H400   1.084       .  S
C394        C899   1.410       .  A
C395        C898   1.410       .  A
C395        C396   1.397       .  A
C395        C402   1.517       .  S
C396        C901   1.408   1_545  A
C396        H401   1.084       .  S
C397        C814   1.495       .  S
C397        C900   1.408       .  A
C397        C398   1.428       .  A
C398        C399   1.519       .  S
C399        F403   1.383       .  S
C399        F908   1.371       .  S
C399        F405   1.382       .  S
C402        F406   1.384       .  S
C402        F911   1.376       .  S
C402        F408   1.385       .  S
F404        C903   1.371       .  S
F407        C906   1.376       .  S
C409        C914   1.394       .  A
C409        C414   1.403       .  A
C409        H416   1.084       .  S
C410        C913   1.395       .  A
C410        C411   1.417   1_565  A
C411        C412   1.406       .  A
C411        C418   1.521       .  S
C412        C413   1.410   1_545  A
C412        H417   1.080       .  S
C413        C918   1.435       .  A
C414        C917   1.435       .  A
C414        C415   1.523       .  S
C415        F419   1.386       .  S
C415        F924   1.380       .  S
C415        F421   1.374       .  S
C418        F422   1.380       .  S
C418        F927   1.383       .  S
C418        F424   1.385       .  S
F420        C919   1.380       .  S
F423        C922   1.383       .  S
C425        C930   1.396       .  A
C425        C430   1.404       .  A
C425        H432   1.070       .  S
C426        C929   1.396   1_545  A
C426        C427   1.413       .  A
C427        C428   1.410       .  A
C427        C434   1.516       .  S
C428        C429   1.412       .  A
C428        H433   1.083       .  S
C429        C934   1.425   1_545  A
C430        C933   1.425       .  A
C430        C431   1.516       .  S
C431        F939   1.385       .  S
C431        F940   1.383       .  S
C431        F437   1.367       .  S
C434        F438   1.383       .  S
C434        F943   1.381       .  S
C434        F944   1.384       .  S
F435        C935   1.385       .  S
F436        C935   1.383       .  S
F439        C938   1.381       .  S
F440        C938   1.384       .  S
C441       C1450   1.410       .  A
C441        C446   1.417       .  A
C441        H448   1.067       .  S
C442       C1262   1.549       .  S
C442       C1449   1.410       .  A
C442        C443   1.423       .  A
C443        C444   1.395       .  A
C443        C450   1.516       .  S
C444        C445   1.400       .  A
C444        H449   1.084       .  S
C445       C1454   1.432       .  A
C446       C1453   1.432       .  A
C446        C447   1.520       .  S
C447        F451   1.384       .  S
C447       F1460   1.379   1_655  S
C447        F453   1.381       .  S
C450        F454   1.380       .  S
C450       F1463   1.378       .  S
C450        F456   1.387       .  S
F452       C1455   1.379       .  S
F455       C1458   1.378       .  S
C457       C1466   1.400       .  A
C457        C462   1.408       .  A
C457        H464   1.084       .  S
C458       C1465   1.400       .  A
C458        C459   1.410       .  A
C459        C460   1.400       .  A
C459        C466   1.515       .  S
C460        C461   1.404       .  A
C460        H465   1.078       .  S
C461       C1262   1.499       .  S
C461       C1470   1.426       .  A
C462       C1469   1.426       .  A
C462        C463   1.520       .  S
C463        F467   1.383       .  S
C463        F468   1.380       .  S
C463        F469   1.383       .  S
C466        F470   1.371       .  S
C466        F471   1.372       .  S
C466        F472   1.385       .  S
C473        C474   1.406       .  A
C473        C478   1.407       .  A
C473        H480   1.075       .  S
C474       C1483   1.427       .  A
C475       C1482   1.427       .  A
C475        C476   1.414       .  A
C475        C482   1.513       .  S
C476       C1485   1.400       .  A
C476        H481   1.084       .  S
C477       C1484   1.400       .  A
C477        C478   1.411       .  A
C478        C479   1.514       .  S
C479        F483   1.385       .  S
C479        F484   1.380       .  S
C479        F485   1.382       .  S
C482        F486   1.378       .  S
C482        F487   1.375       .  S
C482        F488   1.385       .  S
C489        C490   1.399       .  A
C489        C494   1.403       .  A
C489        H496   1.084       .  S
C490       C1499   1.418       .  A
C491       C1498   1.418       .  A
C491        C492   1.411       .  A
C491        C498   1.517       .  S
C492       C1501   1.407   1_455  A
C492        H497   1.082       .  S
C493       C1500   1.407       .  A
C493        C494   1.421       .  A
C494        C495   1.516       .  S
C495        F499   1.384       .  S
C495        F500   1.378       .  S
C495        F501   1.383       .  S
C498        F502   1.377       .  S
C498        F503   1.382       .  S
C498        F504   1.385       .  S
C505        C726   1.520       .  S
C505        C745   1.496       .  S
C505       C1514   1.392       .  D
C506       C1702   1.549       .  S
C506       C1721   1.500   1_655  S
C506       C1513   1.392   1_655  D
O507        C518   1.295       .  A
O507       Zr795   2.452       .  S
O508        C519   1.297       .  A
O508       Zr542   2.465       .  S
O509        C520   1.294       .  A
O509       Zr515   2.452       .  S
O510        C521   1.297       .  A
O510      Zr1523   2.459       .  S
O511        C521   1.285       .  A
O512        C520   1.294       .  A
O512       Zr796   2.452   1_554  S
O513        C519   1.292       .  A
O514        C518   1.290       .  A
O514       Zr515   2.437       .  S
Zr515      O1518   2.459       .  S
Zr515      O1020   2.338       .  S
Zr515       O517   2.341       .  S
Zr515      O1533   2.340       .  S
O516      Zr1019   2.338       .  S
O516      Zr1550   2.346       .  S
O516       Zr545   2.348       .  S
O517       Zr795   2.328       .  S
O517       Zr796   2.344   1_554  S
C518        C742   1.480       .  S
C519        C729   1.486       .  S
C520        C678   1.487       .  S
C521        C662   1.478       .  S
H522        O523   0.966       .  S
O523       Zr542   2.340       .  S
H524        O525   0.966       .  S
O525      Zr1523   2.340       .  S
O525      Zr1803   2.349       .  S
O526        C549   1.295       .  A
O526       Zr794   2.459       .  S
O527        C550   1.298       .  A
O527       Zr543   2.460       .  S
O528        C551   1.290       .  A
O529        C552   1.305   1_554  A
O529       Zr545   2.496       .  S
O530        C553   1.300       .  A
O531        C554   1.287       .  A
O531       Zr544   2.429       .  S
O532        C555   1.279       .  A
O532       Zr546   2.409       .  S
O533        C556   1.291       .  A
O533      Zr1554   2.439       .  S
O534        C555   1.301       .  A
O535        C556   1.288   1_565  A
O535       Zr797   2.422       .  S
O536        C551   1.294       .  A
O536       Zr542   2.449   1_556  S
O537        C554   1.296       .  A
O537       Zr543   2.447       .  S
O538        C553   1.288       .  A
O538      Zr1551   2.419       .  S
O539        C552   1.284   1_554  A
O539      Zr1550   2.413       .  S
O540        C549   1.287       .  A
O540       Zr546   2.420   1_565  S
O541        C550   1.286       .  A
Zr542       O778   2.459   1_554  S
Zr542      O1547   2.413       .  S
Zr542      O1524   2.346       .  S
Zr542       O800   2.339   1_554  S
Zr542      O1820   2.353   1_554  S
Zr543       O759   2.452       .  S
Zr543      O1546   2.419       .  S
Zr543       O769   2.328       .  S
Zr543      O1785   2.349       .  S
Zr543      O1555   2.345       .  S
Zr543       O558   2.331       .  S
Zr544       O764   2.452       .  S
Zr544       O769   2.344       .  S
Zr544       O558   2.338       .  S
Zr545       O787   2.422   1_554  S
Zr545       O812   2.336   1_554  S
Zr546      O1541   2.439       .  S
Zr546      O1051   2.324       .  S
Zr546       O548   2.347   1_545  S
Zr546      O1568   2.331   1_545  S
O547      Zr1551   2.344       .  S
O547      Zr1050   2.324       .  S
O548       Zr794   2.339       .  S
C549        C710   1.472       .  S
C550        C697   1.502       .  S
C551        C566   1.482       .  S
C552        C598   1.511       .  S
C553        C617   1.488       .  S
C554        C582   1.503       .  S
C555        C630   1.498       .  S
C556        C646   1.472       .  S
H557        O558   0.965       .  S
H559        O560   0.965       .  S
O560      Zr1802   2.353       .  S
O560       Zr797   2.337       .  S
O560      Zr1554   2.331   1_565  S
C561        C681   1.514       .  S
C561        C562   1.384       .  D
C562        C665   1.518       .  S
C563        C853   1.566       .  S
C563        C614   1.516       .  S
C563        C816   1.404       .  D
C564        C569   1.492       .  S
C564        C837   1.559   1_556  S
C564        C815   1.404       .  D
C565        C818   1.397       .  A
C565        C570   1.405       .  A
C565        H572   1.074       .  S
C566        C817   1.397       .  A
C566        C567   1.415   1_556  A
C567        C568   1.405       .  A
C567        C574   1.506       .  S
C568        C569   1.402   1_554  A
C568        H573   1.083       .  S
C569        C822   1.422       .  A
C570        C821   1.422       .  A
C570        C571   1.520       .  S
C571        F575   1.378       .  S
C571        F576   1.376       .  S
C571        F829   1.379       .  S
C574        F830   1.383       .  S
C574        F579   1.378       .  S
C574        F580   1.383       .  S
F577        C823   1.379       .  S
F578        C826   1.383       .  S
C581        C582   1.403       .  A
C581        C586   1.399       .  A
C581        H588   1.084       .  S
C582        C835   1.430       .  A
C583        C834   1.430       .  A
C583        C584   1.416       .  A
C583        C590   1.523       .  S
C584        C837   1.411       .  A
C584        H589   1.066       .  S
C585        C816   1.559       .  S
C585        C836   1.411       .  A
C585        C586   1.425       .  A
C586        C587   1.516       .  S
C587        F843   1.382       .  S
C587        F844   1.381       .  S
C587        F593   1.378       .  S
C590        F594   1.383       .  S
C590        F847   1.383   1_554  S
C590        F848   1.384       .  S
F591        C839   1.382       .  S
F592        C839   1.381       .  S
F595        C842   1.383       .  S
F596        C842   1.384       .  S
C597        C598   1.406       .  A
C597        C602   1.409       .  A
C597        H604   1.084   1_556  S
C598        C851   1.437       .  A
C599        C850   1.437       .  A
C599        C600   1.411       .  A
C599        C606   1.524       .  S
C600        C853   1.410       .  A
C600        H605   1.080       .  S
C601        C815   1.566       .  S
C601        C852   1.410       .  A
C601        C602   1.424       .  A
C602        C603   1.517       .  S
C603        F607   1.383       .  S
C603        F860   1.369       .  S
C603        F609   1.381       .  S
C606        F610   1.376       .  S
C606        F863   1.383       .  S
C606        F612   1.385       .  S
F608        C855   1.369       .  S
F611        C858   1.383   1_554  S
C613        C614   1.407       .  A
C613        C618   1.408       .  A
C613        H620   1.083       .  S
C614        C867   1.431       .  A
C615        C866   1.431       .  A
C615        C616   1.407       .  A
C615        C622   1.509       .  S
C616        C869   1.399   1_556  A
C616        H621   1.085       .  S
C617        C868   1.399       .  A
C617        C618   1.421       .  A
C618        C619   1.517       .  S
C619        F623   1.383       .  S
C619        F876   1.377       .  S
C619        F625   1.383       .  S
C622        F626   1.383       .  S
C622        F879   1.364       .  S
C622        F880   1.383       .  S
F624        C871   1.377       .  S
F627        C874   1.364       .  S
F628        C874   1.383       .  S
C629        C634   1.411       .  A
C629        H636   1.085       .  S
C630        C631   1.435   1_545  A
C631        C632   1.395       .  A
C631        C638   1.534       .  S
C632        C633   1.403   1_565  A
C632        H637   1.085       .  S
C634        C635   1.514       .  S
C635        F639   1.384       .  S
C635        F641   1.381       .  S
C638        F642   1.383       .  S
C638        F644   1.384   1_565  S
C645        C646   1.401   1_565  A
C645        C650   1.408       .  A
C645        H652   1.084       .  S
C647        C648   1.397       .  A
C647        C654   1.517       .  S
C648        H653   1.084       .  S
C649        C650   1.428       .  A
C650        C651   1.519       .  S
C651        F655   1.383       .  S
C651        F657   1.382       .  S
C654        F658   1.384       .  S
C654        F660   1.385       .  S
C661        C666   1.403       .  A
C661        H668   1.084       .  S
C662        C663   1.417       .  A
C663        C664   1.406       .  A
C663        C670   1.521       .  S
C664        C665   1.410       .  A
C664        H669   1.080       .  S
C666        C667   1.523       .  S
C667        F671   1.386       .  S
C667        F673   1.374       .  S
C670        F674   1.380       .  S
C670        F676   1.385       .  S
C677        C682   1.404       .  A
C677        H684   1.070       .  S
C678        C679   1.413       .  A
C679        C680   1.410       .  A
C679        C686   1.516       .  S
C680        C681   1.412       .  A
C680        H685   1.083       .  S
C682        C683   1.516       .  S
C683        F689   1.367       .  S
C686        F690   1.383       .  S
C693       C1702   1.410       .  A
C693        C698   1.417       .  A
C693        H700   1.067       .  S
C694       C1514   1.549       .  S
C694       C1701   1.410       .  A
C694        C695   1.423       .  A
C695        C696   1.395       .  A
C695        C702   1.516       .  S
C696        C697   1.400       .  A
C696        H701   1.084       .  S
C697       C1706   1.432       .  A
C698       C1705   1.432       .  A
C698        C699   1.520       .  S
C699        F703   1.384       .  S
C699       F1712   1.379   1_655  S
C699        F705   1.381       .  S
C702        F706   1.380       .  S
C702       F1715   1.378       .  S
C702        F708   1.387       .  S
F704       C1707   1.379       .  S
F707       C1710   1.378       .  S
C709       C1718   1.400       .  A
C709        C714   1.408       .  A
C709        H716   1.084       .  S
C710       C1717   1.400       .  A
C710        C711   1.410       .  A
C711        C712   1.400       .  A
C711        C718   1.515       .  S
C712        C713   1.404       .  A
C712        H717   1.078       .  S
C713       C1514   1.499       .  S
C713       C1722   1.426       .  A
C714       C1721   1.426       .  A
C714        C715   1.520       .  S
C715        F719   1.383       .  S
C715        F720   1.380       .  S
C715        F721   1.383       .  S
C718        F722   1.371       .  S
C718        F723   1.372       .  S
C718        F724   1.385       .  S
C725        C726   1.406       .  A
C725        C730   1.407       .  A
C725        H732   1.075       .  S
C726       C1735   1.427       .  A
C727       C1734   1.427       .  A
C727        C728   1.414       .  A
C727        C734   1.513       .  S
C728       C1737   1.400       .  A
C728        H733   1.084       .  S
C729       C1736   1.400       .  A
C729        C730   1.411       .  A
C730        C731   1.514       .  S
C731        F735   1.385       .  S
C731        F736   1.380       .  S
C731        F737   1.382       .  S
C734        F738   1.378       .  S
C734        F739   1.375       .  S
C734        F740   1.385       .  S
C741        C742   1.399       .  A
C741        C746   1.403       .  A
C741        H748   1.084       .  S
C742       C1751   1.418       .  A
C743       C1750   1.418       .  A
C743        C744   1.411       .  A
C743        C750   1.517       .  S
C744       C1753   1.407   1_455  A
C744        H749   1.082       .  S
C745       C1752   1.407       .  A
C745        C746   1.421       .  A
C746        C747   1.516       .  S
C747        F751   1.384       .  S
C747        F752   1.378       .  S
C747        F753   1.383       .  S
C750        F754   1.377       .  S
C750        F755   1.382       .  S
C750        F756   1.385       .  S
C757        C978   1.520       .  S
C757        C997   1.496       .  S
C757       C1766   1.392       .  D
C758       C1954   1.549       .  S
C758       C1973   1.500   1_655  S
C758       C1765   1.392   1_655  D
O759        C770   1.295       .  A
O760        C771   1.297       .  A
O760       Zr794   2.465       .  S
O761        C772   1.294       .  A
O761       Zr767   2.452       .  S
O762        C773   1.297       .  A
O762      Zr1775   2.459       .  S
O763        C773   1.285       .  A
O764        C772   1.294       .  A
O765        C771   1.292       .  A
O766        C770   1.290       .  A
O766       Zr767   2.437       .  S
Zr767      O1770   2.459       .  S
Zr767      O1272   2.338       .  S
Zr767       O769   2.341       .  S
Zr767      O1785   2.340       .  S
O768      Zr1271   2.338       .  S
O768      Zr1802   2.346       .  S
O768       Zr797   2.348       .  S
C770        C994   1.480       .  S
C771        C981   1.486       .  S
C772        C930   1.487       .  S
C773        C914   1.478       .  S
H774        O775   0.966       .  S
O775       Zr794   2.340       .  S
H776        O777   0.966       .  S
O777      Zr1775   2.340       .  S
O777      Zr1551   2.349       .  S
O778        C801   1.295       .  A
O779        C802   1.298       .  A
O779       Zr795   2.460   1_556  S
O780        C803   1.290       .  A
O781        C804   1.305       .  A
O781       Zr797   2.496       .  S
O782        C805   1.300       .  A
O783        C806   1.287       .  A
O783       Zr796   2.429   1_554  S
O784        C807   1.279       .  A
O784       Zr798   2.409       .  S
O785        C808   1.291       .  A
O785      Zr1806   2.439       .  S
O786        C807   1.301       .  A
O787        C808   1.288   1_565  A
O788        C803   1.294       .  A
O788       Zr794   2.449       .  S
O789        C806   1.296       .  A
O789       Zr795   2.447       .  S
O790        C805   1.288       .  A
O790      Zr1803   2.419       .  S
O791        C804   1.284       .  A
O791      Zr1802   2.413       .  S
O792        C801   1.287       .  A
O792       Zr798   2.420   1_565  S
O793        C802   1.286       .  A
Zr794      O1799   2.413       .  S
Zr794      O1776   2.346       .  S
Zr794      O1568   2.353       .  S
Zr795      O1798   2.419       .  S
Zr795      O1533   2.349       .  S
Zr795      O1807   2.344   1_554  S
Zr795       O810   2.331   1_554  S
Zr796       O810   2.338       .  S
Zr798      O1793   2.439       .  S
Zr798      O1303   2.324       .  S
Zr798       O800   2.347   1_545  S
Zr798      O1820   2.331   1_545  S
O799      Zr1803   2.344   1_556  S
O799      Zr1302   2.324       .  S
C801        C962   1.472       .  S
C802        C949   1.502       .  S
C803        C818   1.482       .  S
C804        C850   1.511       .  S
C805        C869   1.488       .  S
C806        C834   1.503       .  S
C807        C882   1.498       .  S
C808        C898   1.472       .  S
H809        O810   0.965       .  S
H811        O812   0.965       .  S
O812      Zr1550   2.353   1_556  S
O812      Zr1806   2.331   1_565  S
C813        C933   1.514       .  S
C813        C814   1.385       .  D
C814        C917   1.518       .  S
C815        C866   1.516       .  S
C816        C821   1.492       .  S
C817        C822   1.405       .  A
C817        H824   1.074       .  S
C818        C819   1.415       .  A
C819        C820   1.405       .  A
C819        C826   1.506       .  S
C820        C821   1.402       .  A
C820        H825   1.083       .  S
C822        C823   1.520       .  S
C823        F827   1.378       .  S
C823        F828   1.376       .  S
C826        F831   1.378       .  S
C826        F832   1.383       .  S
C833        C834   1.403       .  A
C833        C838   1.399       .  A
C833        H840   1.084       .  S
C835        C836   1.416       .  A
C835        C842   1.523       .  S
C836        H841   1.066       .  S
C837        C838   1.425       .  A
C838        C839   1.516       .  S
C839        F845   1.378       .  S
C842        F846   1.383       .  S
C849        C850   1.406       .  A
C849        C854   1.409       .  A
C849        H856   1.084       .  S
C851        C852   1.411       .  A
C851        C858   1.524       .  S
C852        H857   1.080       .  S
C853        C854   1.424       .  A
C854        C855   1.517       .  S
C855        F859   1.383       .  S
C855        F861   1.381       .  S
C858        F862   1.376       .  S
C858        F864   1.385       .  S
C865        C866   1.407   1_554  A
C865        C870   1.408       .  A
C865        H872   1.083       .  S
C867        C868   1.407       .  A
C867        C874   1.509       .  S
C868        H873   1.085       .  S
C869        C870   1.421       .  A
C870        C871   1.517       .  S
C871        F875   1.383       .  S
C871        F877   1.383       .  S
C874        F878   1.383       .  S
C881        C886   1.411       .  A
C881        H888   1.085       .  S
C882        C883   1.435   1_545  A
C883        C884   1.395       .  A
C883        C890   1.534       .  S
C884        C885   1.403   1_565  A
C884        H889   1.085       .  S
C886        C887   1.514       .  S
C887        F891   1.384       .  S
C887        F893   1.381       .  S
C890        F894   1.383       .  S
C890        F896   1.384   1_565  S
C897        C898   1.401   1_565  A
C897        C902   1.408       .  A
C897        H904   1.084       .  S
C899        C900   1.397       .  A
C899        C906   1.517       .  S
C900        H905   1.084       .  S
C901        C902   1.428       .  A
C902        C903   1.519       .  S
C903        F907   1.383       .  S
C903        F909   1.382       .  S
C906        F910   1.384       .  S
C906        F912   1.385       .  S
C913        C918   1.403       .  A
C913        H920   1.084       .  S
C914        C915   1.417       .  A
C915        C916   1.406       .  A
C915        C922   1.521       .  S
C916        C917   1.410       .  A
C916        H921   1.080       .  S
C918        C919   1.523       .  S
C919        F923   1.386       .  S
C919        F925   1.374       .  S
C922        F926   1.380       .  S
C922        F928   1.385       .  S
C929        C934   1.404       .  A
C929        H936   1.070       .  S
C930        C931   1.413       .  A
C931        C932   1.410       .  A
C931        C938   1.516       .  S
C932        C933   1.412       .  A
C932        H937   1.083       .  S
C934        C935   1.516       .  S
C935        F941   1.367       .  S
C938        F942   1.383       .  S
C945       C1954   1.410       .  A
C945        C950   1.417       .  A
C945        H952   1.067       .  S
C946       C1766   1.549       .  S
C946       C1953   1.410       .  A
C946        C947   1.423       .  A
C947        C948   1.395       .  A
C947        C954   1.516       .  S
C948        C949   1.400       .  A
C948        H953   1.084       .  S
C949       C1958   1.432       .  A
C950       C1957   1.432       .  A
C950        C951   1.520       .  S
C951        F955   1.384       .  S
C951       F1964   1.379   1_655  S
C951        F957   1.381       .  S
C954        F958   1.380       .  S
C954       F1967   1.378       .  S
C954        F960   1.387       .  S
F956       C1959   1.379       .  S
F959       C1962   1.378       .  S
C961       C1970   1.400       .  A
C961        C966   1.408       .  A
C961        H968   1.084       .  S
C962       C1969   1.400       .  A
C962        C963   1.410       .  A
C963        C964   1.400       .  A
C963        C970   1.514       .  S
C964        C965   1.404       .  A
C964        H969   1.078       .  S
C965       C1766   1.500       .  S
C965       C1974   1.426       .  A
C966       C1973   1.426       .  A
C966        C967   1.520       .  S
C967        F971   1.383       .  S
C967        F972   1.380       .  S
C967        F973   1.383       .  S
C970        F974   1.371       .  S
C970        F975   1.372       .  S
C970        F976   1.385       .  S
C977        C978   1.406       .  A
C977        C982   1.407       .  A
C977        H984   1.075       .  S
C978       C1987   1.427       .  A
C979       C1986   1.427       .  A
C979        C980   1.414       .  A
C979        C986   1.513       .  S
C980       C1989   1.400       .  A
C980        H985   1.084       .  S
C981       C1988   1.400       .  A
C981        C982   1.411       .  A
C982        C983   1.514       .  S
C983        F987   1.385       .  S
C983        F988   1.380       .  S
C983        F989   1.382       .  S
C986        F990   1.378       .  S
C986        F991   1.375       .  S
C986        F992   1.385       .  S
C993        C994   1.399       .  A
C993        C998   1.403       .  A
C993       H1000   1.084       .  S
C994       C2003   1.418       .  A
C995       C2002   1.418       .  A
C995        C996   1.411       .  A
C995       C1002   1.517       .  S
C996       C2005   1.407   1_455  A
C996       H1001   1.082       .  S
C997       C2004   1.407       .  A
C997        C998   1.421       .  A
C998        C999   1.516       .  S
C999       F1003   1.384       .  S
C999       F1004   1.378       .  S
C999       F1005   1.383       .  S
C1002      F1006   1.377       .  S
C1002      F1007   1.382       .  S
C1002      F1008   1.385       .  S
C1009      C1230   1.520       .  S
C1009      C1249   1.496   1_455  S
O1011      C1022   1.295       .  A
O1011     Zr1299   2.452       .  S
O1012      C1023   1.297       .  A
O1012     Zr1046   2.465       .  S
O1013      C1024   1.294       .  A
O1013     Zr1019   2.452   1_645  S
O1014      C1025   1.297       .  A
O1015      C1025   1.285       .  A
O1015     Zr1553   2.411       .  S
O1016      C1024   1.294       .  A
O1016     Zr1300   2.452   1_544  S
O1017      C1023   1.292       .  A
O1017     Zr1523   2.441       .  S
O1018      C1022   1.290       .  A
O1018     Zr1019   2.437   1_545  S
Zr1019     O1521   2.442       .  S
Zr1019     O1021   2.341   1_465  S
Zr1019     O1531   2.356   1_455  S
O1020     Zr1049   2.348       .  S
O1021     Zr1299   2.328   1_655  S
O1021     Zr1300   2.344   1_544  S
C1022      C1246   1.479       .  S
C1023      C1233   1.486       .  S
C1024      C1182   1.487       .  S
C1025      C1166   1.478       .  S
H1026      O1027   0.966       .  S
O1027     Zr1523   2.356   1_655  S
O1027     Zr1046   2.340   1_655  S
O1027     Zr1804   2.357   1_554  S
H1028      O1029   0.966       .  S
O1029     Zr1553   2.350   1_545  S
O1030      C1053   1.295       .  A
O1030     Zr1298   2.459       .  S
O1031      C1054   1.298       .  A
O1031     Zr1047   2.460       .  S
O1032      C1055   1.290       .  A
O1032     Zr1804   2.432       .  S
O1033      C1056   1.305   1_554  A
O1033     Zr1049   2.496       .  S
O1034      C1057   1.300       .  A
O1034     Zr1805   2.478   1_545  S
O1035      C1058   1.287       .  A
O1035     Zr1048   2.429   1_545  S
O1036      C1059   1.279       .  A
O1036     Zr1050   2.409   1_655  S
O1037      C1060   1.291       .  A
O1038      C1059   1.301       .  A
O1038     Zr1552   2.480       .  S
O1039      C1060   1.288       .  A
O1039     Zr1301   2.423       .  S
O1040      C1055   1.294       .  A
O1040     Zr1046   2.449   1_656  S
O1041      C1058   1.296       .  A
O1041     Zr1047   2.447   1_655  S
O1042      C1057   1.288       .  A
O1043      C1056   1.284   1_554  A
O1044      C1053   1.287       .  A
O1044     Zr1050   2.420       .  S
O1045      C1054   1.286       .  A
O1045     Zr1554   2.427       .  S
Zr1046     O1282   2.459   1_554  S
Zr1046     O1304   2.339   1_454  S
Zr1047     O1263   2.452       .  S
Zr1047     O1273   2.328   1_455  S
Zr1047     O1062   2.331   1_455  S
Zr1048     O1268   2.452   1_565  S
Zr1048     O1788   2.432       .  S
Zr1048     O1542   2.480   1_565  S
Zr1048     O1273   2.344   1_565  S
Zr1048     O1783   2.357       .  S
Zr1048     O1556   2.340       .  S
Zr1048     O1062   2.338   1_565  S
Zr1049     O1519   2.411       .  S
Zr1049     O1790   2.478       .  S
Zr1049     O1291   2.422   1_554  S
Zr1049     O1533   2.351       .  S
Zr1049     O1807   2.345   1_554  S
Zr1049     O1316   2.336   1_554  S
Zr1050     O1549   2.427       .  S
Zr1050     O1052   2.347   1_455  S
Zr1050     O1566   2.342   1_455  S
O1051     Zr1805   2.345   1_545  S
O1052     Zr1298   2.339   1_655  S
O1052     Zr1552   2.340       .  S
C1053      C1214   1.472       .  S
C1054      C1201   1.502   1_455  S
C1055      C1070   1.482       .  S
C1056      C1102   1.511       .  S
C1057      C1121   1.488       .  S
C1058      C1086   1.503       .  S
C1059      C1134   1.498       .  S
C1060      C1150   1.472       .  S
H1061      O1062   0.965       .  S
O1062     Zr1554   2.342   1_655  S
H1063      O1064   0.965       .  S
O1064     Zr1301   2.336       .  S
C1065      C1641   1.512       .  S
C1065      C1185   1.514       .  S
C1065      C1066   1.385   1_545  D
C1066      C1657   1.495       .  S
C1066      C1169   1.518       .  S
C1067      C1357   1.566       .  S
C1067      C1118   1.516       .  S
C1067      C1320   1.404       .  D
C1068      C1073   1.492       .  S
C1068      C1341   1.559   1_556  S
C1068      C1319   1.404       .  D
C1069      C1322   1.397       .  A
C1069      C1074   1.405       .  A
C1069      H1076   1.074       .  S
C1070      C1321   1.397       .  A
C1070      C1071   1.415   1_556  A
C1071      C1072   1.405       .  A
C1071      C1078   1.506       .  S
C1072      C1073   1.402   1_554  A
C1072      H1077   1.083       .  S
C1073      C1326   1.422       .  A
C1074      C1325   1.422       .  A
C1074      C1075   1.520       .  S
C1075      F1079   1.378       .  S
C1075      F1080   1.376       .  S
C1075      F1333   1.379       .  S
C1078      F1334   1.383       .  S
C1078      F1083   1.378       .  S
C1078      F1084   1.383       .  S
F1081      C1327   1.379       .  S
F1082      C1330   1.383       .  S
C1085      C1086   1.403       .  A
C1085      C1090   1.399       .  A
C1085      H1092   1.084       .  S
C1086      C1339   1.430       .  A
C1087      C1338   1.430       .  A
C1087      C1088   1.416       .  A
C1087      C1094   1.523       .  S
C1088      C1341   1.411       .  A
C1088      H1093   1.066       .  S
C1089      C1320   1.559       .  S
C1089      C1340   1.411       .  A
C1089      C1090   1.425       .  A
C1090      C1091   1.516       .  S
C1091      F1347   1.382       .  S
C1091      F1348   1.381       .  S
C1091      F1097   1.378       .  S
C1094      F1098   1.383       .  S
C1094      F1351   1.383   1_554  S
C1094      F1352   1.384       .  S
F1095      C1343   1.382       .  S
F1096      C1343   1.381       .  S
F1099      C1346   1.383       .  S
F1100      C1346   1.384       .  S
C1101      C1102   1.406       .  A
C1101      C1106   1.409       .  A
C1101      H1108   1.084   1_556  S
C1102      C1355   1.437       .  A
C1103      C1354   1.437       .  A
C1103      C1104   1.411       .  A
C1103      C1110   1.524       .  S
C1104      C1357   1.410       .  A
C1104      H1109   1.080       .  S
C1105      C1319   1.566       .  S
C1105      C1356   1.410       .  A
C1105      C1106   1.424       .  A
C1106      C1107   1.517       .  S
C1107      F1111   1.383       .  S
C1107      F1364   1.369       .  S
C1107      F1113   1.381       .  S
C1110      F1114   1.376       .  S
C1110      F1367   1.383       .  S
C1110      F1116   1.385       .  S
F1112      C1359   1.369       .  S
F1115      C1362   1.383   1_554  S
C1117      C1118   1.407       .  A
C1117      C1122   1.408       .  A
C1117      H1124   1.083       .  S
C1118      C1371   1.431       .  A
C1119      C1370   1.431       .  A
C1119      C1120   1.407       .  A
C1119      C1126   1.509       .  S
C1120      C1373   1.399   1_556  A
C1120      H1125   1.085       .  S
C1121      C1372   1.399       .  A
C1121      C1122   1.421       .  A
C1122      C1123   1.517       .  S
C1123      F1127   1.383       .  S
C1123      F1380   1.377       .  S
C1123      F1129   1.383       .  S
C1126      F1130   1.383       .  S
C1126      F1383   1.364       .  S
C1126      F1384   1.383       .  S
F1128      C1375   1.377       .  S
F1131      C1378   1.364       .  S
F1132      C1378   1.383       .  S
C1133      C1638   1.410       .  A
C1133      C1138   1.411       .  A
C1133      H1140   1.085       .  S
C1134      C1637   1.411       .  A
C1134      C1135   1.435       .  A
C1135      C1136   1.395       .  A
C1135      C1142   1.534       .  S
C1136      C1137   1.403       .  A
C1136      H1141   1.085       .  S
C1137      C1569   1.512       .  S
C1137      C1642   1.423       .  A
C1138      C1641   1.423       .  A
C1138      C1139   1.514       .  S
C1139      F1143   1.384       .  S
C1139      F1648   1.382       .  S
C1139      F1145   1.381       .  S
C1142      F1146   1.383       .  S
C1142      F1651   1.372       .  S
C1142      F1148   1.384       .  S
F1144      C1643   1.382       .  S
F1147      C1646   1.372       .  S
C1149      C1150   1.401       .  A
C1149      C1154   1.408       .  A
C1149      H1156   1.084       .  S
C1150      C1655   1.411       .  A
C1151      C1654   1.410       .  A
C1151      C1152   1.397       .  A
C1151      C1158   1.517       .  S
C1152      C1657   1.408   1_545  A
C1152      H1157   1.084       .  S
C1153      C1570   1.495       .  S
C1153      C1656   1.408       .  A
C1153      C1154   1.428       .  A
C1154      C1155   1.519       .  S
C1155      F1159   1.383       .  S
C1155      F1664   1.371       .  S
C1155      F1161   1.382       .  S
C1158      F1162   1.383       .  S
C1158      F1667   1.376       .  S
C1158      F1164   1.385       .  S
F1160      C1659   1.371       .  S
F1163      C1662   1.376       .  S
C1165      C1670   1.395       .  A
C1165      C1170   1.403       .  A
C1165      H1172   1.084       .  S
C1166      C1669   1.394       .  A
C1166      C1167   1.417   1_565  A
C1167      C1168   1.406       .  A
C1167      C1174   1.521       .  S
C1168      C1169   1.410   1_545  A
C1168      H1173   1.080       .  S
C1169      C1674   1.435       .  A
C1170      C1673   1.435       .  A
C1170      C1171   1.523       .  S
C1171      F1175   1.386       .  S
C1171      F1680   1.380       .  S
C1171      F1177   1.374       .  S
C1174      F1178   1.380       .  S
C1174      F1683   1.383       .  S
C1174      F1180   1.385       .  S
F1176      C1675   1.380       .  S
F1179      C1678   1.383       .  S
C1181      C1686   1.396       .  A
C1181      C1186   1.404       .  A
C1181      H1188   1.070       .  S
C1182      C1685   1.396   1_545  A
C1182      C1183   1.413       .  A
C1183      C1184   1.410       .  A
C1183      C1190   1.516       .  S
C1184      C1185   1.412       .  A
C1184      H1189   1.083       .  S
C1185      C1690   1.425   1_545  A
C1186      C1689   1.425       .  A
C1186      C1187   1.516       .  S
C1187      F1695   1.385       .  S
C1187      F1696   1.383       .  S
C1187      F1193   1.367       .  S
C1190      F1194   1.383       .  S
C1190      F1699   1.381       .  S
C1190      F1700   1.384       .  S
F1191      C1691   1.385       .  S
F1192      C1691   1.383       .  S
F1195      C1694   1.381       .  S
F1196      C1694   1.384       .  S
C1197      C1202   1.417       .  A
C1197      H1204   1.067       .  S
C1198      C1199   1.423       .  A
C1199      C1200   1.395   1_655  A
C1199      C1206   1.515       .  S
C1200      C1201   1.400   1_455  A
C1200      H1205   1.084       .  S
C1202      C1203   1.520       .  S
C1203      F1207   1.384       .  S
C1203      F1209   1.381       .  S
C1206      F1210   1.380       .  S
C1206      F1212   1.387       .  S
C1213      C1218   1.408       .  A
C1213      H1220   1.084       .  S
C1214      C1215   1.410   1_455  A
C1215      C1216   1.400       .  A
C1215      C1222   1.515       .  S
C1216      C1217   1.404   1_655  A
C1216      H1221   1.078       .  S
C1218      C1219   1.520       .  S
C1219      F1223   1.383       .  S
C1219      F1224   1.380       .  S
C1219      F1225   1.383       .  S
C1222      F1226   1.371       .  S
C1222      F1227   1.372       .  S
C1222      F1228   1.385       .  S
C1229      C1230   1.406   1_655  A
C1229      C1234   1.407       .  A
C1229      H1236   1.075       .  S
C1231      C1232   1.414       .  A
C1231      C1238   1.513       .  S
C1232      H1237   1.084       .  S
C1233      C1234   1.411   1_455  A
C1234      C1235   1.514       .  S
C1235      F1239   1.384       .  S
C1235      F1240   1.380       .  S
C1235      F1241   1.382       .  S
C1238      F1242   1.378       .  S
C1238      F1243   1.375       .  S
C1238      F1244   1.385       .  S
C1245      C1246   1.399   1_655  A
C1245      C1250   1.403       .  A
C1245      H1252   1.084       .  S
C1247      C1248   1.411       .  A
C1247      C1254   1.517       .  S
C1248      H1253   1.082       .  S
C1249      C1250   1.421       .  A
C1250      C1251   1.516       .  S
C1251      F1255   1.384       .  S
C1251      F1256   1.378       .  S
C1251      F1257   1.383       .  S
C1254      F1258   1.377       .  S
C1254      F1259   1.382       .  S
C1254      F1260   1.385       .  S
C1261      C1482   1.520       .  S
C1261      C1501   1.496   1_455  S
O1263      C1274   1.295       .  A
O1264      C1275   1.297       .  A
O1264     Zr1298   2.465       .  S
O1265      C1276   1.294       .  A
O1265     Zr1271   2.452   1_645  S
O1266      C1277   1.297       .  A
O1267      C1277   1.285       .  A
O1267     Zr1805   2.411       .  S
O1268      C1276   1.294       .  A
O1269      C1275   1.292       .  A
O1269     Zr1775   2.441       .  S
O1270      C1274   1.290       .  A
O1270     Zr1271   2.437   1_545  S
Zr1271     O1773   2.441       .  S
Zr1271     O1273   2.341   1_465  S
Zr1271     O1783   2.356   1_455  S
O1272     Zr1301   2.348       .  S
C1274      C1498   1.480       .  S
C1275      C1485   1.486       .  S
C1276      C1434   1.487       .  S
C1277      C1418   1.478       .  S
H1278      O1279   0.966       .  S
O1279     Zr1775   2.356   1_655  S
O1279     Zr1298   2.340   1_655  S
O1279     Zr1552   2.357       .  S
H1280      O1281   0.966       .  S
O1281     Zr1805   2.351   1_545  S
O1282      C1305   1.295       .  A
O1283      C1306   1.298       .  A
O1283     Zr1299   2.460   1_556  S
O1284      C1307   1.290       .  A
O1284     Zr1552   2.432       .  S
O1285      C1308   1.305       .  A
O1285     Zr1301   2.496       .  S
O1286      C1309   1.300       .  A
O1286     Zr1553   2.478   1_545  S
O1287      C1310   1.287       .  A
O1287     Zr1300   2.429   1_544  S
O1288      C1311   1.279       .  A
O1288     Zr1302   2.409   1_655  S
O1289      C1312   1.291       .  A
O1290      C1311   1.301       .  A
O1290     Zr1804   2.480       .  S
O1291      C1312   1.288       .  A
O1292      C1307   1.294       .  A
O1292     Zr1298   2.449   1_655  S
O1293      C1310   1.296       .  A
O1293     Zr1299   2.447   1_655  S
O1294      C1309   1.288       .  A
O1295      C1308   1.284       .  A
O1296      C1305   1.287       .  A
O1296     Zr1302   2.420       .  S
O1297      C1306   1.286       .  A
O1297     Zr1806   2.427       .  S
Zr1299     O1314   2.331   1_454  S
Zr1300     O1536   2.432       .  S
Zr1300     O1794   2.480   1_565  S
Zr1300     O1531   2.356   1_556  S
Zr1300     O1808   2.340       .  S
Zr1300     O1314   2.338   1_565  S
Zr1301     O1771   2.411       .  S
Zr1301     O1538   2.478       .  S
Zr1301     O1785   2.351       .  S
Zr1301     O1555   2.345       .  S
Zr1302     O1801   2.427       .  S
Zr1302     O1304   2.347   1_455  S
Zr1302     O1818   2.342   1_455  S
O1303     Zr1553   2.345   1_546  S
O1304     Zr1804   2.340       .  S
C1305      C1466   1.472       .  S
C1306      C1453   1.502   1_455  S
C1307      C1322   1.482       .  S
C1308      C1354   1.511       .  S
C1309      C1373   1.488       .  S
C1310      C1338   1.503       .  S
C1311      C1386   1.498       .  S
C1312      C1402   1.472       .  S
H1313      O1314   0.965       .  S
O1314     Zr1806   2.342   1_655  S
H1315      O1316   0.965       .  S
C1317      C1893   1.512       .  S
C1317      C1437   1.514       .  S
C1317      C1318   1.384   1_545  D
C1318      C1909   1.495       .  S
C1318      C1421   1.518       .  S
C1319      C1370   1.516       .  S
C1320      C1325   1.492       .  S
C1321      C1326   1.405       .  A
C1321      H1328   1.074       .  S
C1322      C1323   1.415       .  A
C1323      C1324   1.405       .  A
C1323      C1330   1.506       .  S
C1324      C1325   1.402       .  A
C1324      H1329   1.083       .  S
C1326      C1327   1.520       .  S
C1327      F1331   1.378       .  S
C1327      F1332   1.376       .  S
C1330      F1335   1.378       .  S
C1330      F1336   1.383       .  S
C1337      C1338   1.403       .  A
C1337      C1342   1.399       .  A
C1337      H1344   1.084       .  S
C1339      C1340   1.416       .  A
C1339      C1346   1.523       .  S
C1340      H1345   1.066       .  S
C1341      C1342   1.425       .  A
C1342      C1343   1.516       .  S
C1343      F1349   1.378       .  S
C1346      F1350   1.383       .  S
C1353      C1354   1.406       .  A
C1353      C1358   1.409       .  A
C1353      H1360   1.084       .  S
C1355      C1356   1.411       .  A
C1355      C1362   1.524       .  S
C1356      H1361   1.080       .  S
C1357      C1358   1.424       .  A
C1358      C1359   1.517       .  S
C1359      F1363   1.383       .  S
C1359      F1365   1.381       .  S
C1362      F1366   1.376       .  S
C1362      F1368   1.385       .  S
C1369      C1370   1.407   1_554  A
C1369      C1374   1.408       .  A
C1369      H1376   1.083       .  S
C1371      C1372   1.407       .  A
C1371      C1378   1.509       .  S
C1372      H1377   1.085       .  S
C1373      C1374   1.421       .  A
C1374      C1375   1.517       .  S
C1375      F1379   1.383       .  S
C1375      F1381   1.383       .  S
C1378      F1382   1.383       .  S
C1385      C1890   1.410       .  A
C1385      C1390   1.411       .  A
C1385      H1392   1.085       .  S
C1386      C1889   1.410       .  A
C1386      C1387   1.435       .  A
C1387      C1388   1.395       .  A
C1387      C1394   1.534       .  S
C1388      C1389   1.403       .  A
C1388      H1393   1.085       .  S
C1389      C1821   1.512       .  S
C1389      C1894   1.423       .  A
C1390      C1893   1.423       .  A
C1390      C1391   1.514       .  S
C1391      F1395   1.384       .  S
C1391      F1900   1.382       .  S
C1391      F1397   1.381       .  S
C1394      F1398   1.383       .  S
C1394      F1903   1.372       .  S
C1394      F1400   1.384       .  S
F1396      C1895   1.382       .  S
F1399      C1898   1.372       .  S
C1401      C1402   1.401       .  A
C1401      C1406   1.408       .  A
C1401      H1408   1.084       .  S
C1402      C1907   1.410       .  A
C1403      C1906   1.410       .  A
C1403      C1404   1.397       .  A
C1403      C1410   1.517       .  S
C1404      C1909   1.408   1_545  A
C1404      H1409   1.084       .  S
C1405      C1822   1.495       .  S
C1405      C1908   1.408       .  A
C1405      C1406   1.428       .  A
C1406      C1407   1.519       .  S
C1407      F1411   1.383       .  S
C1407      F1916   1.371       .  S
C1407      F1413   1.382       .  S
C1410      F1414   1.384       .  S
C1410      F1919   1.376       .  S
C1410      F1416   1.385       .  S
F1412      C1911   1.371       .  S
F1415      C1914   1.376       .  S
C1417      C1922   1.395       .  A
C1417      C1422   1.403       .  A
C1417      H1424   1.084       .  S
C1418      C1921   1.395       .  A
C1418      C1419   1.417   1_565  A
C1419      C1420   1.406       .  A
C1419      C1426   1.521       .  S
C1420      C1421   1.410   1_545  A
C1420      H1425   1.080       .  S
C1421      C1926   1.435       .  A
C1422      C1925   1.435       .  A
C1422      C1423   1.523       .  S
C1423      F1427   1.386       .  S
C1423      F1932   1.380       .  S
C1423      F1429   1.374       .  S
C1426      F1430   1.380       .  S
C1426      F1935   1.383       .  S
C1426      F1432   1.385       .  S
F1428      C1927   1.380       .  S
F1431      C1930   1.383       .  S
C1433      C1938   1.396       .  A
C1433      C1438   1.404       .  A
C1433      H1440   1.070       .  S
C1434      C1937   1.396   1_545  A
C1434      C1435   1.413       .  A
C1435      C1436   1.410       .  A
C1435      C1442   1.516       .  S
C1436      C1437   1.412       .  A
C1436      H1441   1.083       .  S
C1437      C1942   1.425   1_545  A
C1438      C1941   1.425       .  A
C1438      C1439   1.516       .  S
C1439      F1947   1.385       .  S
C1439      F1948   1.383       .  S
C1439      F1445   1.367       .  S
C1442      F1446   1.383       .  S
C1442      F1951   1.381       .  S
C1442      F1952   1.384       .  S
F1443      C1943   1.385       .  S
F1444      C1943   1.383       .  S
F1447      C1946   1.381       .  S
F1448      C1946   1.384       .  S
C1449      C1454   1.417       .  A
C1449      H1456   1.067       .  S
C1450      C1451   1.423       .  A
C1451      C1452   1.395   1_655  A
C1451      C1458   1.516       .  S
C1452      C1453   1.400   1_455  A
C1452      H1457   1.084       .  S
C1454      C1455   1.520       .  S
C1455      F1459   1.384       .  S
C1455      F1461   1.381       .  S
C1458      F1462   1.380       .  S
C1458      F1464   1.387       .  S
C1465      C1470   1.408       .  A
C1465      H1472   1.084       .  S
C1466      C1467   1.410   1_455  A
C1467      C1468   1.400       .  A
C1467      C1474   1.515       .  S
C1468      C1469   1.404   1_655  A
C1468      H1473   1.078       .  S
C1470      C1471   1.520       .  S
C1471      F1475   1.383       .  S
C1471      F1476   1.380       .  S
C1471      F1477   1.383       .  S
C1474      F1478   1.371       .  S
C1474      F1479   1.372       .  S
C1474      F1480   1.385       .  S
C1481      C1482   1.406   1_655  A
C1481      C1486   1.407       .  A
C1481      H1488   1.075       .  S
C1483      C1484   1.414       .  A
C1483      C1490   1.513       .  S
C1484      H1489   1.084       .  S
C1485      C1486   1.411   1_455  A
C1486      C1487   1.514       .  S
C1487      F1491   1.385       .  S
C1487      F1492   1.380       .  S
C1487      F1493   1.382       .  S
C1490      F1494   1.378       .  S
C1490      F1495   1.375       .  S
C1490      F1496   1.385       .  S
C1497      C1498   1.399   1_655  A
C1497      C1502   1.403       .  A
C1497      H1504   1.084       .  S
C1499      C1500   1.411       .  A
C1499      C1506   1.517       .  S
C1500      H1505   1.082       .  S
C1501      C1502   1.421       .  A
C1502      C1503   1.516       .  S
C1503      F1507   1.384       .  S
C1503      F1508   1.378       .  S
C1503      F1509   1.383       .  S
C1506      F1510   1.377       .  S
C1506      F1511   1.382       .  S
C1506      F1512   1.385       .  S
C1513      C1734   1.520       .  S
C1513      C1753   1.496   1_455  S
O1515      C1526   1.295       .  A
O1515     Zr1803   2.452       .  S
O1516      C1527   1.297       .  A
O1516     Zr1550   2.465       .  S
O1517      C1528   1.294       .  A
O1517     Zr1523   2.452   1_655  S
O1518      C1529   1.297       .  A
O1519      C1529   1.285       .  A
O1520      C1528   1.294       .  A
O1520     Zr1804   2.452   1_554  S
O1521      C1527   1.292       .  A
O1522      C1526   1.290       .  A
O1522     Zr1523   2.437       .  S
Zr1523     O1525   2.341   1_455  S
O1524     Zr1553   2.348       .  S
O1525     Zr1803   2.328   1_655  S
O1525     Zr1804   2.344   1_554  S
C1526      C1750   1.480       .  S
C1527      C1737   1.486       .  S
C1528      C1686   1.487       .  S
C1529      C1670   1.478       .  S
H1530      O1531   0.966       .  S
O1531     Zr1550   2.340   1_655  S
H1532      O1533   0.966       .  S
O1534      C1557   1.295       .  A
O1534     Zr1802   2.459       .  S
O1535      C1558   1.298       .  A
O1535     Zr1551   2.460       .  S
O1536      C1559   1.290       .  A
O1537      C1560   1.305   1_554  A
O1537     Zr1553   2.496       .  S
O1538      C1561   1.300       .  A
O1539      C1562   1.287       .  A
O1539     Zr1552   2.429       .  S
O1540      C1563   1.279       .  A
O1540     Zr1554   2.409   1_655  S
O1541      C1564   1.291       .  A
O1542      C1563   1.301       .  A
O1543      C1564   1.288   1_565  A
O1543     Zr1805   2.422       .  S
O1544      C1559   1.294       .  A
O1544     Zr1550   2.449   1_656  S
O1545      C1562   1.296       .  A
O1545     Zr1551   2.447   1_655  S
O1546      C1561   1.288       .  A
O1547      C1560   1.284   1_554  A
O1548      C1557   1.287       .  A
O1548     Zr1554   2.420   1_565  S
O1549      C1558   1.286       .  A
Zr1550     O1786   2.459   1_554  S
Zr1550     O1808   2.339   1_454  S
Zr1551     O1767   2.452       .  S
Zr1551     O1777   2.328   1_455  S
Zr1551     O1566   2.331   1_455  S
Zr1552     O1772   2.452       .  S
Zr1552     O1777   2.344       .  S
Zr1552     O1566   2.338       .  S
Zr1553     O1795   2.422   1_554  S
Zr1553     O1820   2.336   1_554  S
Zr1554     O1556   2.347   1_445  S
O1556     Zr1802   2.339   1_655  S
C1557      C1718   1.472       .  S
C1558      C1705   1.502   1_455  S
C1559      C1574   1.482       .  S
C1560      C1606   1.511       .  S
C1561      C1625   1.488       .  S
C1562      C1590   1.503       .  S
C1563      C1638   1.498       .  S
C1564      C1654   1.472       .  S
H1565      O1566   0.965       .  S
H1567      O1568   0.965       .  S
O1568     Zr1805   2.337       .  S
C1569      C1689   1.514       .  S
C1569      C1570   1.384       .  D
C1570      C1673   1.518       .  S
C1571      C1861   1.566       .  S
C1571      C1622   1.516       .  S
C1571      C1824   1.404       .  D
C1572      C1577   1.492       .  S
C1572      C1845   1.559   1_556  S
C1572      C1823   1.404       .  D
C1573      C1826   1.397       .  A
C1573      C1578   1.405       .  A
C1573      H1580   1.074       .  S
C1574      C1825   1.397       .  A
C1574      C1575   1.415   1_556  A
C1575      C1576   1.405       .  A
C1575      C1582   1.506       .  S
C1576      C1577   1.402   1_554  A
C1576      H1581   1.083       .  S
C1577      C1830   1.422       .  A
C1578      C1829   1.422       .  A
C1578      C1579   1.520       .  S
C1579      F1583   1.378       .  S
C1579      F1584   1.376       .  S
C1579      F1837   1.379       .  S
C1582      F1838   1.383       .  S
C1582      F1587   1.378       .  S
C1582      F1588   1.383       .  S
F1585      C1831   1.379       .  S
F1586      C1834   1.383       .  S
C1589      C1590   1.403       .  A
C1589      C1594   1.399       .  A
C1589      H1596   1.084       .  S
C1590      C1843   1.430       .  A
C1591      C1842   1.430       .  A
C1591      C1592   1.416       .  A
C1591      C1598   1.523       .  S
C1592      C1845   1.411       .  A
C1592      H1597   1.066       .  S
C1593      C1824   1.559       .  S
C1593      C1844   1.411       .  A
C1593      C1594   1.425       .  A
C1594      C1595   1.516       .  S
C1595      F1851   1.382       .  S
C1595      F1852   1.381       .  S
C1595      F1601   1.378       .  S
C1598      F1602   1.383       .  S
C1598      F1855   1.383   1_554  S
C1598      F1856   1.384       .  S
F1599      C1847   1.382       .  S
F1600      C1847   1.381       .  S
F1603      C1850   1.383       .  S
F1604      C1850   1.384       .  S
C1605      C1606   1.406       .  A
C1605      C1610   1.409       .  A
C1605      H1612   1.084   1_556  S
C1606      C1859   1.437       .  A
C1607      C1858   1.437       .  A
C1607      C1608   1.411       .  A
C1607      C1614   1.524       .  S
C1608      C1861   1.410       .  A
C1608      H1613   1.080       .  S
C1609      C1823   1.566       .  S
C1609      C1860   1.410       .  A
C1609      C1610   1.424       .  A
C1610      C1611   1.517       .  S
C1611      F1615   1.383       .  S
C1611      F1868   1.369       .  S
C1611      F1617   1.381       .  S
C1614      F1618   1.376       .  S
C1614      F1871   1.383       .  S
C1614      F1620   1.385       .  S
F1616      C1863   1.369       .  S
F1619      C1866   1.383   1_554  S
C1621      C1622   1.407       .  A
C1621      C1626   1.408       .  A
C1621      H1628   1.083       .  S
C1622      C1875   1.431       .  A
C1623      C1874   1.431       .  A
C1623      C1624   1.407       .  A
C1623      C1630   1.509       .  S
C1624      C1877   1.399   1_556  A
C1624      H1629   1.085       .  S
C1625      C1876   1.399       .  A
C1625      C1626   1.421       .  A
C1626      C1627   1.517       .  S
C1627      F1631   1.383       .  S
C1627      F1884   1.377       .  S
C1627      F1633   1.383       .  S
C1630      F1634   1.383       .  S
C1630      F1887   1.364       .  S
C1630      F1888   1.383       .  S
F1632      C1879   1.377       .  S
F1635      C1882   1.364       .  S
F1636      C1882   1.383       .  S
C1637      C1642   1.411       .  A
C1637      H1644   1.085       .  S
C1638      C1639   1.435   1_545  A
C1639      C1640   1.395       .  A
C1639      C1646   1.534       .  S
C1640      C1641   1.403   1_565  A
C1640      H1645   1.085       .  S
C1642      C1643   1.514       .  S
C1643      F1647   1.384       .  S
C1643      F1649   1.381       .  S
C1646      F1650   1.383       .  S
C1646      F1652   1.384   1_565  S
C1653      C1654   1.401   1_565  A
C1653      C1658   1.408       .  A
C1653      H1660   1.084       .  S
C1655      C1656   1.397       .  A
C1655      C1662   1.517       .  S
C1656      H1661   1.084       .  S
C1657      C1658   1.428       .  A
C1658      C1659   1.519       .  S
C1659      F1663   1.383       .  S
C1659      F1665   1.382       .  S
C1662      F1666   1.384       .  S
C1662      F1668   1.385       .  S
C1669      C1674   1.403       .  A
C1669      H1676   1.084       .  S
C1670      C1671   1.417       .  A
C1671      C1672   1.406       .  A
C1671      C1678   1.521       .  S
C1672      C1673   1.410       .  A
C1672      H1677   1.080       .  S
C1674      C1675   1.523       .  S
C1675      F1679   1.386       .  S
C1675      F1681   1.374       .  S
C1678      F1682   1.380       .  S
C1678      F1684   1.385       .  S
C1685      C1690   1.404       .  A
C1685      H1692   1.070       .  S
C1686      C1687   1.413       .  A
C1687      C1688   1.410       .  A
C1687      C1694   1.516       .  S
C1688      C1689   1.412       .  A
C1688      H1693   1.083       .  S
C1690      C1691   1.516       .  S
C1691      F1697   1.367       .  S
C1694      F1698   1.383       .  S
C1701      C1706   1.417       .  A
C1701      H1708   1.067       .  S
C1702      C1703   1.423       .  A
C1703      C1704   1.395   1_655  A
C1703      C1710   1.516       .  S
C1704      C1705   1.400   1_455  A
C1704      H1709   1.084       .  S
C1706      C1707   1.520       .  S
C1707      F1711   1.384       .  S
C1707      F1713   1.381       .  S
C1710      F1714   1.380       .  S
C1710      F1716   1.387       .  S
C1717      C1722   1.408       .  A
C1717      H1724   1.084       .  S
C1718      C1719   1.410   1_455  A
C1719      C1720   1.400       .  A
C1719      C1726   1.515       .  S
C1720      C1721   1.404   1_655  A
C1720      H1725   1.078       .  S
C1722      C1723   1.520       .  S
C1723      F1727   1.383       .  S
C1723      F1728   1.380       .  S
C1723      F1729   1.383       .  S
C1726      F1730   1.371       .  S
C1726      F1731   1.372       .  S
C1726      F1732   1.385       .  S
C1733      C1734   1.406   1_655  A
C1733      C1738   1.407       .  A
C1733      H1740   1.075       .  S
C1735      C1736   1.414       .  A
C1735      C1742   1.513       .  S
C1736      H1741   1.084       .  S
C1737      C1738   1.411   1_455  A
C1738      C1739   1.514       .  S
C1739      F1743   1.385       .  S
C1739      F1744   1.380       .  S
C1739      F1745   1.382       .  S
C1742      F1746   1.378       .  S
C1742      F1747   1.375       .  S
C1742      F1748   1.385       .  S
C1749      C1750   1.399   1_655  A
C1749      C1754   1.403       .  A
C1749      H1756   1.084       .  S
C1751      C1752   1.411       .  A
C1751      C1758   1.517       .  S
C1752      H1757   1.082       .  S
C1753      C1754   1.421       .  A
C1754      C1755   1.516       .  S
C1755      F1759   1.384       .  S
C1755      F1760   1.378       .  S
C1755      F1761   1.383       .  S
C1758      F1762   1.377       .  S
C1758      F1763   1.382       .  S
C1758      F1764   1.385       .  S
C1765      C1986   1.520       .  S
C1765      C2005   1.496   1_455  S
O1767      C1778   1.295       .  A
O1768      C1779   1.297       .  A
O1768     Zr1802   2.465       .  S
O1769      C1780   1.294       .  A
O1769     Zr1775   2.452   1_655  S
O1770      C1781   1.297       .  A
O1771      C1781   1.285       .  A
O1772      C1780   1.294       .  A
O1773      C1779   1.292       .  A
O1774      C1778   1.290       .  A
O1774     Zr1775   2.437       .  S
Zr1775     O1777   2.341   1_455  S
O1776     Zr1805   2.348       .  S
C1778      C2002   1.480       .  S
C1779      C1989   1.486       .  S
C1780      C1938   1.487       .  S
C1781      C1922   1.478       .  S
H1782      O1783   0.966       .  S
O1783     Zr1802   2.340   1_655  S
H1784      O1785   0.966       .  S
O1786      C1809   1.295       .  A
O1787      C1810   1.298       .  A
O1787     Zr1803   2.460   1_556  S
O1788      C1811   1.290       .  A
O1789      C1812   1.305       .  A
O1789     Zr1805   2.496       .  S
O1790      C1813   1.300       .  A
O1791      C1814   1.287       .  A
O1791     Zr1804   2.429   1_554  S
O1792      C1815   1.279       .  A
O1792     Zr1806   2.409   1_655  S
O1793      C1816   1.291       .  A
O1794      C1815   1.301       .  A
O1795      C1816   1.288   1_565  A
O1796      C1811   1.294       .  A
O1796     Zr1802   2.449   1_655  S
O1797      C1814   1.296       .  A
O1797     Zr1803   2.447   1_655  S
O1798      C1813   1.288       .  A
O1799      C1812   1.284       .  A
O1800      C1809   1.287       .  A
O1800     Zr1806   2.420   1_565  S
O1801      C1810   1.286       .  A
Zr1803     O1818   2.331   1_454  S
Zr1804     O1818   2.338       .  S
Zr1806     O1808   2.347   1_445  S
C1809      C1970   1.472       .  S
C1810      C1957   1.502   1_455  S
C1811      C1826   1.482       .  S
C1812      C1858   1.511       .  S
C1813      C1877   1.488       .  S
C1814      C1842   1.503       .  S
C1815      C1890   1.498       .  S
C1816      C1906   1.472       .  S
H1817      O1818   0.965       .  S
H1819      O1820   0.965       .  S
C1821      C1941   1.514       .  S
C1821      C1822   1.384       .  D
C1822      C1925   1.518       .  S
C1823      C1874   1.516       .  S
C1824      C1829   1.492       .  S
C1825      C1830   1.405       .  A
C1825      H1832   1.074       .  S
C1826      C1827   1.415       .  A
C1827      C1828   1.405       .  A
C1827      C1834   1.506       .  S
C1828      C1829   1.402       .  A
C1828      H1833   1.083       .  S
C1830      C1831   1.520       .  S
C1831      F1835   1.378       .  S
C1831      F1836   1.376       .  S
C1834      F1839   1.378       .  S
C1834      F1840   1.383       .  S
C1841      C1842   1.403       .  A
C1841      C1846   1.399       .  A
C1841      H1848   1.084       .  S
C1843      C1844   1.416       .  A
C1843      C1850   1.523       .  S
C1844      H1849   1.066       .  S
C1845      C1846   1.425       .  A
C1846      C1847   1.516       .  S
C1847      F1853   1.378       .  S
C1850      F1854   1.383       .  S
C1857      C1858   1.406       .  A
C1857      C1862   1.409       .  A
C1857      H1864   1.084       .  S
C1859      C1860   1.411       .  A
C1859      C1866   1.524       .  S
C1860      H1865   1.080       .  S
C1861      C1862   1.424       .  A
C1862      C1863   1.517       .  S
C1863      F1867   1.383       .  S
C1863      F1869   1.381       .  S
C1866      F1870   1.376       .  S
C1866      F1872   1.385       .  S
C1873      C1874   1.407   1_554  A
C1873      C1878   1.408       .  A
C1873      H1880   1.083       .  S
C1875      C1876   1.407       .  A
C1875      C1882   1.509       .  S
C1876      H1881   1.085       .  S
C1877      C1878   1.421       .  A
C1878      C1879   1.517       .  S
C1879      F1883   1.383       .  S
C1879      F1885   1.383       .  S
C1882      F1886   1.383       .  S
C1889      C1894   1.411       .  A
C1889      H1896   1.085       .  S
C1890      C1891   1.435   1_545  A
C1891      C1892   1.395       .  A
C1891      C1898   1.534       .  S
C1892      C1893   1.403   1_565  A
C1892      H1897   1.085       .  S
C1894      C1895   1.514       .  S
C1895      F1899   1.384       .  S
C1895      F1901   1.381       .  S
C1898      F1902   1.383       .  S
C1898      F1904   1.384   1_565  S
C1905      C1906   1.401   1_565  A
C1905      C1910   1.408       .  A
C1905      H1912   1.084       .  S
C1907      C1908   1.397       .  A
C1907      C1914   1.517       .  S
C1908      H1913   1.084       .  S
C1909      C1910   1.428       .  A
C1910      C1911   1.519       .  S
C1911      F1915   1.383       .  S
C1911      F1917   1.382       .  S
C1914      F1918   1.384       .  S
C1914      F1920   1.385       .  S
C1921      C1926   1.403       .  A
C1921      H1928   1.084       .  S
C1922      C1923   1.417       .  A
C1923      C1924   1.406       .  A
C1923      C1930   1.521       .  S
C1924      C1925   1.410       .  A
C1924      H1929   1.080       .  S
C1926      C1927   1.523       .  S
C1927      F1931   1.386       .  S
C1927      F1933   1.374       .  S
C1930      F1934   1.380       .  S
C1930      F1936   1.385       .  S
C1937      C1942   1.404       .  A
C1937      H1944   1.070       .  S
C1938      C1939   1.413       .  A
C1939      C1940   1.410       .  A
C1939      C1946   1.516       .  S
C1940      C1941   1.412       .  A
C1940      H1945   1.083       .  S
C1942      C1943   1.516       .  S
C1943      F1949   1.367       .  S
C1946      F1950   1.383       .  S
C1953      C1958   1.417       .  A
C1953      H1960   1.067       .  S
C1954      C1955   1.423       .  A
C1955      C1956   1.395   1_655  A
C1955      C1962   1.516       .  S
C1956      C1957   1.400   1_455  A
C1956      H1961   1.084       .  S
C1958      C1959   1.520       .  S
C1959      F1963   1.384       .  S
C1959      F1965   1.381       .  S
C1962      F1966   1.380       .  S
C1962      F1968   1.387       .  S
C1969      C1974   1.408       .  A
C1969      H1976   1.084       .  S
C1970      C1971   1.410   1_455  A
C1971      C1972   1.400       .  A
C1971      C1978   1.514       .  S
C1972      C1973   1.404   1_655  A
C1972      H1977   1.078       .  S
C1974      C1975   1.520       .  S
C1975      F1979   1.383       .  S
C1975      F1980   1.380       .  S
C1975      F1981   1.383       .  S
C1978      F1982   1.371       .  S
C1978      F1983   1.372       .  S
C1978      F1984   1.385       .  S
C1985      C1986   1.406   1_655  A
C1985      C1990   1.407       .  A
C1985      H1992   1.075       .  S
C1987      C1988   1.414       .  A
C1987      C1994   1.513       .  S
C1988      H1993   1.084       .  S
C1989      C1990   1.411   1_455  A
C1990      C1991   1.514       .  S
C1991      F1995   1.385       .  S
C1991      F1996   1.380       .  S
C1991      F1997   1.382       .  S
C1994      F1998   1.378       .  S
C1994      F1999   1.375       .  S
C1994      F2000   1.385       .  S
C2001      C2002   1.399   1_655  A
C2001      C2006   1.403       .  A
C2001      H2008   1.084       .  S
C2003      C2004   1.411       .  A
C2003      C2010   1.517       .  S
C2004      H2009   1.082       .  S
C2005      C2006   1.421       .  A
C2006      C2007   1.516       .  S
C2007      F2011   1.384       .  S
C2007      F2012   1.378       .  S
C2007      F2013   1.383       .  S
C2010      F2014   1.377       .  S
C2010      F2015   1.382       .  S
C2010      F2016   1.385       .  S
