geometry optimzed in LAMMPS
_audit_creation_date              2020-11-30 
_audit_creation_method            'lammps2cif' 
_symmetry_space_group_name_H-M    'P1' 
_symmetry_Int_Tables_number       1 
_symmetry_cell_setting            triclinic 
loop_ 
_symmetry_equiv_pos_as_xyz 
  x,y,z 
_cell_length_a                    34.54882309 
_cell_length_b                    34.90525358931166 
_cell_length_c                    41.623903635834516 
_cell_angle_alpha                 88.6270704248349 
_cell_angle_beta                  91.0257090003445 
_cell_angle_gamma                 122.38926184779439 
loop_ 
_atom_site_label 
_atom_site_type_symbol 
_atom_site_fract_x 
_atom_site_fract_y 
_atom_site_fract_z 
_atom_site_charge 
C1          C  0.34305557  0.31952551  0.94391808     0.85300
C2          C  0.30356315  0.27110627  0.93680549    -0.54900
C3          C  0.29425998  0.23680342  0.95824116     0.08200
C4          C  0.32806243  0.25626366  0.98659900     0.19200
C5          C  0.32809618  0.32773280  0.97559263    -0.55700
C6          C  0.32066736  0.29527429  0.99891522     0.08300
C7          C  0.38509012  0.31871727  0.95415563    -0.55200
C8          C  0.37732043  0.28083128  0.97044012     0.08900
H9          H  0.28003143  0.26762383  0.91788213     0.13400
H10         H  0.32209733  0.23051101  0.00531958    -0.00900
H11         H  0.32320165  0.35552311  0.97941062     0.13700
H12         H  0.41807191  0.34304496  0.94335057     0.13500
C13         C  0.17785940  0.15052629  0.92480306     0.85300
C14         C  0.17493291  0.10677891  0.93308790    -0.54900
C15         C  0.19353051  0.10441016  0.96231040     0.08200
C16         C  0.21817672  0.15225395  0.97922911     0.19200
C17         C  0.15852368  0.16125257  0.95400002    -0.55700
C18         C  0.17904226  0.16145016  0.98261617     0.08300
C19         C  0.22880585  0.18365149  0.92514210    -0.55200
C20         C  0.25103744  0.18955089  0.95369813     0.08900
H21         H  0.15833331  0.07926904  0.91616258     0.13400
H22         H  0.23530528  0.15324946  0.00229118    -0.00900
H23         H  0.12965123  0.16554354  0.95244206     0.13700
H24         H  0.24595292  0.20193873  0.90324043     0.13500
C25         C  0.14848965  0.98759974  0.94461140     0.85300
C26         C  0.19864087  0.01357111  0.93330165    -0.54900
C27         C  0.23221284  0.03293329  0.95612777     0.08200
C28         C  0.21101085  0.03749879  0.98696734     0.19200
C29         C  0.14585258  0.46056873  0.97392687    -0.55700
C30         C  0.17760419  0.48792805  0.99663739     0.08300
C31         C  0.14168422  0.02279422  0.95960386    -0.55200
C32         C  0.17924977  0.05639074  0.97565168     0.08900
H33         H  0.20665297  0.01496794  0.90834204     0.13400
H34         H  0.23681821  0.05859423  0.00549702    -0.00900
H35         H  0.12037975  0.42477993  0.97785483     0.13700
H36         H  0.11368488  0.02634104  0.95134372     0.13500
C37         C  0.30622998  0.49129562  0.92493503     0.85300
C38         C  0.29670133  0.46366402  0.95638156    -0.54900
C39         C  0.29843226  0.48664390  0.98335820     0.08200
C40         C  0.31129009  0.03359737  0.97748402     0.19200
C41         C  0.27117556  0.00074021  0.92705406    -0.55700
C42         C  0.27126968  0.02416865  0.95323523     0.08300
C43         C  0.35163200  0.03766700  0.92930023    -0.55200
C44         C  0.35711959  0.05922713  0.95787519     0.08900
H45         H  0.29086687  0.42985210  0.95734315     0.13400
H46         H  0.31223822  0.05138271  0.99951801    -0.00900
H47         H  0.24586442  0.98743514  0.90816900     0.13700
H48         H  0.37800951  0.05081393  0.91100013     0.13500
C49         C  0.48312338  0.13033852  0.94496100     0.85300
C50         C  0.47081453  0.16499534  0.93539642    -0.54900
C51         C  0.44393296  0.17136621  0.95576396     0.08200
C52         C  0.43044102  0.13919513  0.98516824     0.19200
C53         C  0.50604686  0.14673189  0.97727179    -0.55700
C54         C  0.47902021  0.15117056  0.99907751     0.08300
C55         C  0.43859116  0.08643706  0.95373175    -0.55200
C56         C  0.40686846  0.09042326  0.97015402     0.08900
H57         H  0.48903306  0.18743549  0.91544001     0.13400
H58         H  0.40899593  0.14291755  0.00280456    -0.00900
H59         H  0.04276364  0.15694434  0.98530947     0.13700
H60         H  0.43052318  0.05458607  0.94351972     0.13500
C61         C  0.46724870  0.28111479  0.91901304     0.85300
C62         C  0.42261048  0.27735389  0.92582126    -0.54900
C63         C  0.40360913  0.26049175  0.95584678     0.08200
C64         C  0.43024453  0.24067516  0.97379551     0.19200
C65         C  0.49880084  0.30369845  0.94852526    -0.55700
C66         C  0.47935110  0.28267489  0.97718780     0.08300
C67         C  0.45207643  0.23217120  0.92031100    -0.55200
C68         C  0.43651986  0.21029429  0.94926719     0.08900
H69         H  0.40941621  0.29120397  0.90846921     0.13400
H70         H  0.41437328  0.22300803  0.99688099    -0.00900
H71         H  0.03837692  0.33233534  0.95305607     0.13700
H72         H  0.45442695  0.21644981  0.89895254     0.13500
C73         C  0.30232639  0.30742640  0.08861924     0.85300
C74         C  0.25105651  0.27568724  0.08795187    -0.54900
C75         C  0.22941814  0.26964167  0.05912517     0.08200
C76         C  0.26330791  0.30657263  0.03378890     0.19200
C77         C  0.32146417  0.29590213  0.05966296    -0.55700
C78         C  0.30180867  0.29630199  0.03075928     0.08300
C79         C  0.30698316  0.35177031  0.08014399    -0.55200
C80         C  0.28854988  0.35435915  0.05097036     0.08900
H81         H  0.23301007  0.25776226  0.10975128     0.13400
H82         H  0.24679841  0.30624154  0.01058372    -0.00900
H83         H  0.34984782  0.29089056  0.06159573     0.13700
H84         H  0.32343960  0.37901783  0.09733046     0.13500
C85         C  0.00878171  0.17030645  0.09303525     0.85300
C86         C  0.02544454  0.21966921  0.09249851    -0.54900
C87         C  0.04208463  0.24254220  0.06401736     0.08200
C88         C  0.04842100  0.21256674  0.03912434     0.19200
C89         C  0.47829907  0.15133482  0.05979461    -0.55700
C90         C  0.99917811  0.17099293  0.03464979     0.08300
C91         C  0.05286151  0.17294871  0.08660837    -0.55200
C92         C  0.07362910  0.19145772  0.05724846     0.08900
H93         H  0.02358999  0.23520067  0.11416516     0.13400
H94         H  0.06528593  0.23077003  0.01639398    -0.00900
H95         H  0.44346126  0.12205376  0.06131752     0.13700
H96         H  0.06508568  0.15838739  0.10420887     0.13500
C97         C  0.99237291  0.31958882  0.06870886     0.85300
C98         C  0.47238866  0.30555367  0.03149441    -0.54900
C99         C  0.99981548  0.30079223  0.01452370     0.08200
C100        C  0.04844632  0.31469073  0.02917187     0.19200
C101        C  0.00672927  0.28661413  0.07840040    -0.55700
C102        C  0.03496327  0.28184606  0.05824153     0.08300
C103        C  0.03595680  0.36458696  0.06076190    -0.55200
C104        C  0.06919422  0.36298449  0.04445833     0.08900
H105        H  0.43787370  0.29762457  0.02673942     0.13400
H106        H  0.07133915  0.31260298  0.01190933    -0.00900
H107        H  0.98826705  0.26337847  0.09792592     0.13700
H108        H  0.04145056  0.39578946  0.07036710     0.13500
C109        C  0.14082927  0.13904227  0.06993045     0.85300
C110        C  0.15546974  0.13094337  0.03812563    -0.54900
C111        C  0.16098328  0.16252942  0.01460506     0.08200
C112        C  0.15217137  0.20062962  0.02682917     0.19200
C113        C  0.17948909  0.18801474  0.07613641    -0.55700
C114        C  0.18689201  0.22165647  0.05468716     0.08300
C115        C  0.09768895  0.13763193  0.06014013    -0.55200
C116        C  0.10319385  0.17433442  0.04353334     0.08900
H117        H  0.16146136  0.10387265  0.03434680     0.13400
H118        H  0.15653487  0.22559724  0.00793082    -0.00900
H119        H  0.20452407  0.19247232  0.09418777     0.13700
H120        H  0.06507055  0.11152635  0.07051202     0.13500
C121        C  0.32695347  0.47032158  0.06982535     0.85300
C122        C  0.33643199  0.43648464  0.05576742    -0.54900
C123        C  0.30023073  0.40188270  0.03897696     0.08200
C124        C  0.26568943  0.41724995  0.02766428     0.19200
C125        C  0.32637564  0.49636184  0.04007182    -0.55700
C126        C  0.29652109  0.46855833  0.01660926     0.08300
C127        C  0.27717056  0.44130459  0.08151178    -0.55200
C128        C  0.24353104  0.42056560  0.05873202     0.08900
H129        H  0.36551326  0.43502587  0.06435418     0.13400
H130        H  0.24037859  0.39477450  0.00933995    -0.00900
H131        H  0.35717660  0.03103888  0.03661809     0.13700
H132        H  0.26951076  0.43925626  0.10668283     0.13500
C133        C  0.16922423  0.46568640  0.08775804     0.85300
C134        C  0.20357750  0.45187480  0.08764789    -0.54900
C135        C  0.20367062  0.42833626  0.06159508     0.08200
C136        C  0.16527168  0.42094679  0.03655327     0.19200
C137        C  0.17814212  0.49316158  0.05648716    -0.55700
C138        C  0.17636023  0.47005585  0.02956514     0.08300
C139        C  0.12413560  0.42132696  0.08302102    -0.55200
C140        C  0.11870875  0.39810240  0.05532920     0.08900
H141        H  0.22743271  0.46320174  0.10743995     0.13400
H142        H  0.16371787  0.40255149  0.01469598    -0.00900
H143        H  0.18020608  0.02018905  0.05689779     0.13700
H144        H  0.09764817  0.41002601  0.10103684     0.13500
In145      In  0.34828319  0.34519094  0.84663971     1.36900
C146        C  0.42967691  0.36184521  0.83878574     0.76400
O147        O  0.33613708  0.29389567  0.81190935    -0.62100
O148        O  0.35067223  0.35758713  0.79176775    -0.53000
C149        C  0.26099618  0.28330672  0.84610668     0.69100
O150        O  0.29282895  0.27718366  0.85382280    -0.47800
C151        C  0.35239177  0.34211628  0.91050761     0.73800
O152        O  0.39593623  0.32564671  0.85016876    -0.59700
O153        O  0.34184791  0.36932102  0.89806981    -0.49800
O154        O  0.42431786  0.39529359  0.83434162    -0.56100
C155        C  0.34264557  0.31774144  0.78678027     0.83900
O156        O  0.27302173  0.32453910  0.84105423    -0.58000
O157        O  0.36498385  0.32472128  0.89036895    -0.61300
In158      In  0.30029265  0.44570487  0.83320959     1.36900
C159        C  0.22056197  0.43239761  0.84159555     0.76400
O160        O  0.26456963  0.43389277  0.78603237    -0.62100
O161        O  0.32453708  0.43296799  0.78424869    -0.53000
C162        C  0.38550371  0.01453939  0.83279956     0.69100
O163        O  0.35254724  0.01923391  0.82478267    -0.47800
C164        C  0.30521895  0.47104275  0.89271060     0.73800
O165        O  0.25436080  0.46810058  0.82901038    -0.59700
O166        O  0.29863194  0.43162901  0.88743560    -0.49800
O167        O  0.22551345  0.39883573  0.84709447    -0.56100
C168        C  0.29547540  0.43759400  0.76837252     0.83900
O169        O  0.37513996  0.47024319  0.83996978    -0.58000
O170        O  0.31029748  0.49520728  0.86788982    -0.61300
In171      In  0.14582673  0.16057728  0.83007617     1.36900
C172        C  0.11985161  0.07562024  0.82907981     0.76400
O173        O  0.17956930  0.14573581  0.86809417    -0.62100
O174        O  0.12888353  0.15939361  0.88343190    -0.53000
C175        C  0.21635888  0.24208751  0.83971910     0.69100
O176        O  0.21739294  0.20714840  0.83443704    -0.47800
C177        C  0.15328470  0.16647274  0.76652293     0.73800
O178        O  0.15937779  0.10879226  0.82200228    -0.59700
O179        O  0.11385458  0.15311157  0.77813867    -0.49800
O180        O  0.08934238  0.08500076  0.83368847    -0.56100
C181        C  0.15981957  0.15095279  0.89132604     0.83900
O182        O  0.17660807  0.23677035  0.83873094    -0.58000
O183        O  0.18500847  0.18120746  0.78715057    -0.61300
In184      In  0.12391431  0.46033520  0.85046209     1.36900
C185        C  0.11663776  0.03306763  0.83703958     0.76400
O186        O  0.17716467  0.50028315  0.81591701    -0.62100
O187        O  0.11107348  0.44711924  0.79699513    -0.53000
C188        C  0.18166782  0.43543189  0.85030531     0.69100
O189        O  0.19468685  0.98041545  0.85756703    -0.47800
C190        C  0.11647908  0.46268147  0.91496279     0.73800
O191        O  0.15312313  0.03708581  0.84830497    -0.59700
O192        O  0.11575125  0.42996951  0.90184947    -0.49800
O193        O  0.08168832  0.99239359  0.83369853    -0.56100
C194        C  0.15249059  0.48050906  0.79138833     0.83900
O195        O  0.13920164  0.40491576  0.84613325    -0.58000
O196        O  0.10808174  0.48511892  0.89536719    -0.61300
In197      In  0.50270567  0.13273768  0.85043760     1.36900
C198        C  0.02765080  0.21206559  0.85043866     0.76400
O199        O  0.48129625  0.09215404  0.89696226    -0.62100
O200        O  0.03726082  0.13753793  0.90337515    -0.53000
C201        C  0.42937641  0.05494131  0.84083850     0.69100
O202        O  0.42942446  0.08919109  0.85087209    -0.47800
C203        C  0.98513480  0.13474540  0.79045790     0.73800
O204        O  0.48262654  0.18084215  0.85592456    -0.59700
O205        O  0.01729682  0.12787654  0.79769214    -0.49800
O206        O  0.05906205  0.20341643  0.84794473    -0.56100
C207        C  0.99779749  0.12332164  0.91531209     0.83900
O208        O  0.46840692  0.05912152  0.83836842    -0.58000
O209        O  0.46881167  0.14293592  0.81100946    -0.61300
In210      In  0.51939793  0.32630803  0.82820885     1.36900
C211        C  0.46766850  0.35782235  0.82921364     0.76400
O212        O  0.46356923  0.28320336  0.86130233    -0.62100
O213        O  0.03495557  0.33564844  0.88520042    -0.53000
C214        C  0.03134459  0.25468568  0.84220443     0.69100
O215        O  0.48920079  0.25458087  0.82846055    -0.47800
C216        C  0.02927330  0.32441139  0.76704377     0.73800
O217        O  0.45602621  0.31913461  0.81860800    -0.59700
O218        O  0.02865952  0.35544478  0.78162629    -0.49800
O219        O  0.51028823  0.38529100  0.83584583    -0.56100
C220        C  0.99403861  0.30139141  0.89088611     0.83900
O221        O  0.06640578  0.29485792  0.84675169    -0.58000
O222        O  0.54145103  0.30677253  0.78314742    -0.61300
C223        C  0.34402855  0.48121089  0.59179472     0.85300
C224        C  0.32514662  0.49194746  0.62131215    -0.54900
C225        C  0.34642108  0.49262457  0.64978456     0.08200
C226        C  0.38577901  0.48372625  0.64576305     0.19200
C227        C  0.39632542  0.01508615  0.59091718    -0.55700
C228        C  0.41964187  0.02099864  0.61906398     0.08300
C229        C  0.34166321  0.43784242  0.60000253    -0.55200
C230        C  0.36090998  0.43592936  0.62888010     0.08900
H231        H  0.29582635  0.49554383  0.62010554     0.13400
H232        H  0.40330758  0.48481719  0.66865148    -0.00900
H233        H  0.41252008  0.03217884  0.56855509     0.13700
H234        H  0.32524139  0.41021771  0.58308375     0.13500
C235        C  0.00776523  0.14990002  0.61214244     0.85300
C236        C  0.47497059  0.10176037  0.60100790    -0.54900
C237        C  0.46469777  0.06743442  0.62288505     0.08200
C238        C  0.49721008  0.08715134  0.65221491     0.19200
C239        C  0.98969494  0.15498105  0.64355125    -0.55700
C240        C  0.48670985  0.12360439  0.66469389     0.08300
C241        C  0.05075290  0.15131777  0.62311303    -0.55200
C242        C  0.04419799  0.11395356  0.63964416     0.08900
H243        H  0.45484550  0.09759810  0.57983009     0.13400
H244        H  0.49181383  0.06128107  0.67066418    -0.00900
H245        H  0.98336583  0.18178570  0.64753619     0.13700
H246        H  0.08397607  0.17705321  0.61341381     0.13500
C247        C  0.13634574  0.11385391  0.58962207     0.85300
C248        C  0.09345754  0.11350313  0.59635805    -0.54900
C249        C  0.07353636  0.09648449  0.62619525     0.08200
C250        C  0.09851115  0.07530282  0.64476027     0.21000
C251        C  0.16838517  0.13591091  0.61893173    -0.55700
C252        C  0.14844385  0.11635923  0.64782075     0.08300
C253        C  0.11780907  0.06405641  0.59145087    -0.55200
C254        C  0.10268614  0.04313586  0.62067874     0.08900
H255        H  0.08142409  0.12835583  0.57879825     0.13400
H256        H  0.08233826  0.05866905  0.66803016    -0.00900
H257        H  0.20262304  0.16608842  0.61709795     0.13700
H258        H  0.11804359  0.04669061  0.57024190     0.13500
C259        C  0.14828757  0.46514798  0.61336172     0.85300
C260        C  0.13747088  0.99877979  0.60630092    -0.54900
C261        C  0.11028572  0.00409810  0.62693011     0.08200
C262        C  0.09574504  0.47245519  0.65467899     0.19200
C263        C  0.17205980  0.48078556  0.64562903    -0.55700
C264        C  0.14475275  0.48424863  0.66816900     0.08300
C265        C  0.10485807  0.42109633  0.62272848    -0.55200
C266        C  0.07261420  0.42419398  0.63871177     0.08900
H267        H  0.15812725  0.02380762  0.58799687     0.13400
H268        H  0.07413447  0.47516939  0.67275495    -0.00900
H269        H  0.20657885  0.48872331  0.65039798     0.13700
H270        H  0.09816231  0.38944520  0.61294718     0.13500
C271        C  0.47647802  0.32258775  0.59159314     0.85300
C272        C  0.46655754  0.29394350  0.62249495    -0.54900
C273        C  0.46725229  0.31566964  0.64981912     0.08200
C274        C  0.47832871  0.36495143  0.64360512     0.19200
C275        C  0.44221399  0.33645150  0.59140086    -0.55700
C276        C  0.44134259  0.35889019  0.61787601     0.08300
C277        C  0.01898189  0.36978735  0.59759728    -0.55200
C278        C  0.02341912  0.39191977  0.62581734     0.08900
H279        H  0.46169541  0.26052223  0.62293166     0.13400
H280        H  0.47880218  0.38241291  0.66568210    -0.00900
H281        H  0.41970000  0.32702333  0.57083325     0.13700
H282        H  0.04576377  0.38246632  0.57969013     0.13500
C283        C  0.31891258  0.31912673  0.61128521     0.85300
C284        C  0.36818005  0.34687337  0.59856852    -0.54900
C285        C  0.40261219  0.36786328  0.62073103     0.08200
C286        C  0.38224050  0.37229623  0.65217417     0.19200
C287        C  0.32007613  0.29331195  0.64080210    -0.55700
C288        C  0.35127566  0.32119787  0.66356887     0.08300
C289        C  0.31087030  0.35382853  0.62566410    -0.55200
C290        C  0.34823034  0.38844000  0.64158673     0.08900
H291        H  0.37474915  0.34737819  0.57329296     0.13400
H292        H  0.40851174  0.39479722  0.67001140    -0.00900
H293        H  0.29584779  0.25720363  0.64450574     0.13700
H294        H  0.28199863  0.35596725  0.61751257     0.13500
C295        C  0.47169181  0.13588506  0.75512042     0.85300
C296        C  0.42079106  0.10216235  0.75524302    -0.54900
C297        C  0.39775602  0.09639027  0.72712864     0.08200
C298        C  0.42995431  0.13342948  0.70120854     0.19200
C299        C  0.49049516  0.12498578  0.72561187    -0.55700
C300        C  0.46908068  0.12428633  0.69715131     0.08300
C301        C  0.47412113  0.17931651  0.74683802    -0.55200
C302        C  0.45501669  0.18135740  0.71796419     0.08900
H303        H  0.40436196  0.08413419  0.77729770     0.13400
H304        H  0.41226939  0.13224146  0.67837669    -0.00900
H305        H  0.01128224  0.11538088  0.72941623     0.13700
H306        H  0.49054291  0.20694678  0.76375007     0.13500
C307        C  0.49815295  0.29888096  0.73508928     0.85300
C308        C  0.50574577  0.26361902  0.72121934    -0.54900
C309        C  0.46831145  0.22912754  0.70516015     0.08200
C310        C  0.43485536  0.24590376  0.69411554     0.19200
C311        C  0.49759773  0.32467277  0.70539014    -0.55700
C312        C  0.46646275  0.29702682  0.68259370     0.08300
C313        C  0.44878073  0.27160820  0.74763401    -0.55200
C314        C  0.41434261  0.25058264  0.72547660     0.08900
H315        H  0.53429503  0.26117765  0.72972252     0.13400
H316        H  0.40864717  0.22355124  0.67619854    -0.00900
H317        H  0.02537099  0.36446777  0.70394863     0.13700
H318        H  0.44219730  0.27089336  0.77290669     0.13500
C319        C  0.34174792  0.29720688  0.75455526     0.85300
C320        C  0.37454421  0.28151049  0.75508994    -0.54900
C321        C  0.37512541  0.25894649  0.72860021     0.08200
C322        C  0.33833031  0.25352496  0.70291164     0.19200
C323        C  0.35264629  0.32572444  0.72352077    -0.55700
C324        C  0.35085822  0.30313197  0.69637962     0.08300
C325        C  0.29620866  0.25364968  0.74887823    -0.55200
C326        C  0.29119414  0.23104930  0.72073769     0.08900
H327        H  0.39641046  0.28997558  0.77582278     0.13400
H328        H  0.33718525  0.23548118  0.68097591    -0.00900
H329        H  0.35859136  0.35959190  0.72284852     0.13700
H330        H  0.26907375  0.24288849  0.76625141     0.13500
C331        C  0.30505687  0.46542150  0.73684296     0.85300
C332        C  0.32137891  0.45964602  0.70479844    -0.54900
C333        C  0.32803324  0.49250637  0.68217350     0.08200
C334        C  0.32101871  0.03169112  0.69387589     0.19200
C335        C  0.34273663  0.01515121  0.74455033    -0.55700
C336        C  0.35346897  0.04996310  0.72300603     0.08300
C337        C  0.26241629  0.46523711  0.72677443    -0.55200
C338        C  0.27108367  0.00623196  0.70878359     0.08900
H339        H  0.32715829  0.43261267  0.70018963     0.13400
H340        H  0.32768727  0.05816306  0.67557809    -0.00900
H341        H  0.36402712  0.01836623  0.76480176     0.13700
H342        H  0.22903493  0.43880193  0.73585003     0.13500
C343        C  0.18030077  0.00696440  0.75847977     0.85300
C344        C  0.19615224  0.05599084  0.75651892    -0.54900
C345        C  0.21173529  0.07731944  0.72748349     0.08200
C346        C  0.21777107  0.04606743  0.70348561     0.19200
C347        C  0.14243960  0.48088486  0.72871406    -0.55700
C348        C  0.16846836  0.00396999  0.70021842     0.08300
C349        C  0.22473087  0.00995523  0.75231687    -0.55200
C350        C  0.24405985  0.02632290  0.72231320     0.08900
H351        H  0.19458416  0.07257320  0.77772239     0.13400
H352        H  0.23381025  0.06310996  0.68028033    -0.00900
H353        H  0.10771138  0.45130846  0.72944293     0.13700
H354        H  0.22659914  0.48401149  0.76990106     0.13500
C355        C  0.16680557  0.15878554  0.73360559     0.85300
C356        C  0.14226400  0.14164078  0.70175776    -0.54900
C357        C  0.16907350  0.13728002  0.67934680     0.08200
C358        C  0.21847665  0.14995420  0.69249867     0.19200
C359        C  0.17842698  0.12315516  0.74185095    -0.55700
C360        C  0.20548666  0.11725773  0.72143512     0.08300
C361        C  0.20997660  0.20259683  0.72343500    -0.55200
C362        C  0.24198617  0.19883729  0.70772133     0.08900
H363        H  0.10742429  0.13291552  0.69729733     0.13400
H364        H  0.23966434  0.14658664  0.67442667    -0.00900
H365        H  0.15729733  0.09825414  0.76005933     0.13700
H366        H  0.21691674  0.23457401  0.73272338     0.13500
In367      In  0.30918102  0.48418342  0.49705477     1.36900
C368        C  0.28970852  0.40186346  0.49821237     0.76400
O369        O  0.34566424  0.47480061  0.53542656    -0.62100
O370        O  0.29192876  0.48509295  0.54995364    -0.53000
C371        C  0.38393705  0.06072319  0.50308946     0.69100
O372        O  0.38279899  0.02547342  0.49398654    -0.47800
C373        C  0.30515713  0.48988831  0.43270777     0.73800
O374        O  0.32894978  0.43618005  0.49101000    -0.59700
O375        O  0.27271069  0.45643049  0.44782477    -0.49800
O376        O  0.25733589  0.40894408  0.50166268    -0.56100
C377        C  0.32505179  0.47979050  0.55826728     0.83900
O378        O  0.34525434  0.05710156  0.50581153    -0.58000
O379        O  0.32817270  0.52375961  0.45026350    -0.61300
In380      In  0.16748083  0.46190042  0.51631611     1.36900
C381        C  0.19629116  0.04704029  0.51767677     0.76400
O382        O  0.12966737  0.44577404  0.55934598    -0.62100
O383        O  0.19994863  0.46928201  0.56819226    -0.53000
C384        C  0.09966193  0.37970416  0.50874323     0.69100
O385        O  0.09707062  0.41302329  0.51644350    -0.47800
C386        C  0.14859410  0.46822074  0.45523102     0.73800
O387        O  0.15658782  0.01442289  0.52499176    -0.59700
O388        O  0.18063544  0.46110644  0.46234151    -0.49800
O389        O  0.22656098  0.03722411  0.51349835    -0.56100
C390        C  0.16125559  0.45835631  0.57993353     0.83900
O391        O  0.14007823  0.38679456  0.50724361    -0.58000
O392        O  0.12934406  0.47290207  0.47905073    -0.61300
In393      In  0.18748529  0.15418732  0.49776460     1.36900
C394        C  0.12839430  0.17611893  0.49957141     0.76400
O395        O  0.13382050  0.11105056  0.53211757    -0.62100
O396        O  0.19768905  0.16732154  0.55122915    -0.53000
C397        C  0.19976047  0.08930922  0.50887633     0.69100
O398        O  0.16343623  0.08493365  0.49689164    -0.47800
C399        C  0.19244975  0.15525574  0.43290379     0.73800
O400        O  0.11914096  0.13699372  0.49185671    -0.59700
O401        O  0.19463988  0.18779855  0.44745440    -0.49800
O402        O  0.17076747  0.20763095  0.50251958    -0.56100
C403        C  0.15703977  0.13257182  0.55674397     0.83900
O404        O  0.23437401  0.12996492  0.51293191    -0.58000
O405        O  0.19921964  0.13044115  0.45128672    -0.61300
In406      In  0.51300589  0.16958079  0.51395991     1.36900
C407        C  0.09011090  0.17932887  0.50880146     0.76400
O408        O  0.50460659  0.12597475  0.47618507    -0.62100
O409        O  0.01519766  0.18977795  0.46305285    -0.53000
C410        C  0.42822128  0.10149313  0.51080228     0.69100
O411        O  0.46156161  0.09744016  0.51878377    -0.47800
C412        C  0.01632723  0.17846967  0.58116597     0.73800
O413        O  0.05546357  0.14357855  0.52071239    -0.59700
O414        O  0.98477138  0.17810247  0.56485296    -0.49800
O415        O  0.08706336  0.21411015  0.50430034    -0.56100
C416        C  0.50947556  0.15227848  0.45293501     0.83900
O417        O  0.43738306  0.14202374  0.50774040    -0.58000
O418        O  0.55102218  0.18564078  0.56112608    -0.61300
In419      In  0.29401411  0.29116128  0.51777370     1.36900
C420        C  0.28675987  0.35960168  0.50634019     0.76400
O421        O  0.34586037  0.33175496  0.48272865    -0.62100
O422        O  0.27948175  0.27820084  0.46439570    -0.53000
C423        C  0.35183799  0.26631198  0.51669209     0.69100
O424        O  0.36134864  0.30553826  0.52432668    -0.47800
C425        C  0.28921195  0.29379207  0.58239450     0.73800
O426        O  0.32318217  0.36262791  0.51692859    -0.59700
O427        O  0.29132930  0.26286957  0.56900777    -0.49800
O428        O  0.25077038  0.31947364  0.50376854    -0.56100
C429        C  0.32041894  0.31225926  0.45843345     0.83900
O430        O  0.30929465  0.23575921  0.51269155    -0.58000
O431        O  0.27705116  0.31378214  0.56333199    -0.61300
In432      In  0.47040213  0.27616919  0.49903950     1.36900
C433        C  0.39082608  0.26309704  0.50843470     0.76400
O434        O  0.43943048  0.27916401  0.45331730    -0.62100
O435        O  0.48667610  0.25968950  0.44760369    -0.53000
C436        C  0.05578484  0.33882267  0.50105852     0.69100
O437        O  0.02477101  0.34547782  0.49202714    -0.47800
C438        C  0.47630588  0.30283811  0.55909391     0.73800
O439        O  0.42553105  0.29962224  0.49777873    -0.59700
O440        O  0.46836556  0.26299239  0.55370801    -0.49800
O441        O  0.39482701  0.22858029  0.51178076    -0.56100
C442        C  0.46253999  0.27292955  0.43370470     0.83900
O443        O  0.04309381  0.29758073  0.50683389    -0.58000
O444        O  0.48286995  0.32725502  0.53415571    -0.61300
In445      In  0.35010134  0.49206510  0.16433152     1.36900
C446        C  0.36035700  0.42531651  0.17232822     0.76400
O447        O  0.37368608  0.47956235  0.11677292    -0.62100
O448        O  0.35315522  0.02242196  0.11399539    -0.53000
C449        C  0.29047621  0.51348158  0.16767423     0.69100
O450        O  0.28170889  0.47487000  0.15892878    -0.47800
C451        C  0.32704128  0.97343814  0.22455903     0.73800
O452        O  0.32401926  0.42175917  0.16091507    -0.59700
O453        O  0.36746266  0.00785118  0.21783404    -0.49800
O454        O  0.39520868  0.46552973  0.17683279    -0.56100
C455        C  0.35985522  0.99475371  0.10008512     0.83900
O456        O  0.33383739  0.04689540  0.16903276    -0.58000
O457        O  0.29903616  0.44826764  0.19975616    -0.61300
In458      In  0.17246732  0.50507318  0.18123723     1.36900
C459        C  0.25133717  0.51622892  0.17548136     0.76400
O460        O  0.16542192  0.45956375  0.14450218    -0.62100
O461        O  0.17534196  0.01803084  0.12557194    -0.53000
C462        C  0.08846888  0.43747784  0.17837845     0.69100
O463        O  0.12185482  0.43367219  0.18679629    -0.47800
C464        C  0.18058465  0.00545131  0.24445980     0.73800
O465        O  0.21614910  0.47999507  0.18628022    -0.59700
O466        O  0.16371784  0.02707202  0.23161338    -0.49800
O467        O  0.24822680  0.05268181  0.16898399    -0.56100
C468        C  0.16736525  0.97822292  0.12023082     0.83900
O469        O  0.09724355  0.47783038  0.17444612    -0.58000
O470        O  0.21023948  0.52444550  0.22886323    -0.61300
In471      In  0.47175653  0.32129164  0.16017261     1.36900
C472        C  0.44523848  0.23619384  0.16075950     0.76400
O473        O  0.50865283  0.30948916  0.19837736    -0.62100
O474        O  0.45814846  0.32260644  0.21431657    -0.53000
C475        C  0.04484078  0.39633059  0.17069808     0.69100
O476        O  0.04541685  0.36228831  0.16091417    -0.47800
C477        C  0.48124163  0.32666729  0.09676913     0.73800
O478        O  0.99177687  0.26922259  0.15722897    -0.59700
O479        O  0.44209520  0.31610241  0.10748696    -0.49800
O480        O  0.41440511  0.24549306  0.16406920    -0.56100
C481        C  0.48990864  0.31532539  0.22199254     0.83900
O482        O  0.00541356  0.39109984  0.17382607    -0.58000
O483        O  0.51166647  0.33829743  0.11812099    -0.61300
In484      In  0.45791487  0.13071240  0.18070662     1.36900
C485        C  0.01696075  0.10137301  0.18405472     0.76400
O486        O  0.45389662  0.16054343  0.22591511    -0.62100
O487        O  0.44699065  0.09728630  0.23184405    -0.53000
C488        C  0.44259891  0.19407009  0.16931150     0.69100
O489        O  0.98686631  0.19708317  0.18450551    -0.47800
C490        C  0.48894742  0.15351276  0.12210890     0.73800
O491        O  0.02597924  0.14006218  0.19270680    -0.59700
O492        O  0.44803677  0.11912076  0.12719992    -0.49800
O493        O  0.97464290  0.07094200  0.17898592    -0.56100
C494        C  0.45479121  0.13304456  0.24524547     0.83900
O495        O  0.40876274  0.15290991  0.16545004    -0.58000
O496        O  0.51222951  0.17404384  0.14697492    -0.61300
In497      In  0.13761728  0.11478404  0.16743228     1.36900
C498        C  0.22483813  0.17557920  0.16786936     0.76400
O499        O  0.14958994  0.16522638  0.20260045    -0.62100
O500        O  0.13560258  0.10132022  0.22205754    -0.53000
C501        C  0.05655409  0.09910183  0.17590575     0.69100
O502        O  0.09138100  0.13644849  0.16706033    -0.47800
C503        C  0.13297187  0.11801772  0.10375406     0.73800
O504        O  0.19354456  0.18175639  0.15872069    -0.59700
O505        O  0.14173031  0.08943281  0.11601680    -0.49800
O506        O  0.21251744  0.13446326  0.17381518    -0.56100
C507        C  0.14289809  0.14079472  0.22742750     0.83900
O508        O  0.06116149  0.06495518  0.17796230    -0.58000
O509        O  0.12229402  0.13701337  0.12400965    -0.61300
In510      In  0.33547630  0.29977334  0.18364033     1.36900
C511        C  0.35750183  0.38327146  0.18095918     0.76400
O512        O  0.29726303  0.28261036  0.22640667    -0.62100
O513        O  0.36805375  0.30827515  0.23547319    -0.53000
C514        C  0.26844275  0.21684188  0.17566758     0.69100
O515        O  0.26519988  0.24966531  0.18363068    -0.47800
C516        C  0.31959476  0.30656668  0.12228093     0.73800
O517        O  0.31808403  0.34960291  0.18756766    -0.59700
O518        O  0.35239652  0.30098463  0.13031765    -0.49800
O519        O  0.38954557  0.37544083  0.17906696    -0.56100
C520        C  0.32890814  0.29617261  0.24702384     0.83900
O521        O  0.30917276  0.22480627  0.17400681    -0.58000
O522        O  0.29813947  0.30945946  0.14543953    -0.61300
C523        C  0.32807219  0.48506241  0.40298882     0.85300
C524        C  0.30577260  0.46940356  0.37046804    -0.54900
C525        C  0.33327331  0.46595702  0.34847052     0.08200
C526        C  0.38192201  0.47814419  0.36265944     0.19200
C527        C  0.34088171  0.45064463  0.41223071    -0.55700
C528        C  0.36837044  0.44517495  0.39175821     0.08300
C529        C  0.37268863  0.02810562  0.39851013    -0.55200
C530        C  0.40538242  0.02675213  0.38132812     0.08900
H531        H  0.27150503  0.46184768  0.36517587     0.13400
H532        H  0.40394681  0.47532344  0.34501782    -0.00900
H533        H  0.32273596  0.42783529  0.43199566     0.13700
H534        H  0.37844232  0.05911072  0.40861942     0.13500
C535        C  0.13054210  0.46975582  0.42191522     0.85300
C536        C  0.07881236  0.44141954  0.42195629    -0.54900
C537        C  0.05724139  0.43571978  0.39308909     0.08200
C538        C  0.09194487  0.47144860  0.36761992     0.19200
C539        C  0.14686655  0.45569490  0.39253031    -0.55700
C540        C  0.12760796  0.45776789  0.36384053     0.08300
C541        C  0.14002804  0.01632643  0.41347012    -0.55200
C542        C  0.12117485  0.01859116  0.38434474     0.08900
H543        H  0.06047656  0.42411181  0.44384546     0.13400
H544        H  0.07528122  0.47236511  0.34481710    -0.00900
H545        H  0.17387925  0.44864850  0.39398831     0.13700
H546        H  0.15772439  0.04414956  0.43009890     0.13500
C547        C  0.16338993  0.13379196  0.40291898     0.85300
C548        C  0.17174874  0.10014276  0.38705726    -0.54900
C549        C  0.13436025  0.06606657  0.37111064     0.08200
C550        C  0.10081371  0.08306472  0.36086388     0.19200
C551        C  0.16302607  0.16154190  0.37421026    -0.55700
C552        C  0.13223685  0.13480262  0.35070306     0.08300
C553        C  0.11360057  0.10558495  0.41496051    -0.55200
C554        C  0.07955136  0.08588603  0.39233347     0.08900
H555        H  0.20053459  0.09755794  0.39473521     0.13400
H556        H  0.07497037  0.06151699  0.34248645    -0.00900
H557        H  0.18745711  0.19777189  0.37135656     0.13700
H558        H  0.10623339  0.10329639  0.44016107     0.13500
C559        C  0.50762761  0.13355641  0.41995786     0.85300
C560        C  0.04123100  0.11807520  0.42189061    -0.54900
C561        C  0.04037914  0.09440698  0.39570831     0.08200
C562        C  0.50107178  0.08676666  0.36929221     0.19200
C563        C  0.51462852  0.15980323  0.38840268    -0.55700
C564        C  0.51157176  0.13574343  0.36163834     0.08300
C565        C  0.46253609  0.08878420  0.41651316    -0.55200
C566        C  0.45554131  0.06429164  0.38929578     0.08900
H567        H  0.06552731  0.12904560  0.44143505     0.13400
H568        H  0.49856504  0.06755513  0.34766333    -0.00900
H569        H  0.02260062  0.19440287  0.39069318     0.13700
H570        H  0.43756796  0.07758454  0.43562020     0.13500
C571        C  0.47131575  0.29874494  0.40138666     0.85300
C572        C  0.48724750  0.29318134  0.36911819    -0.54900
C573        C  0.49277461  0.32574963  0.34649836     0.08200
C574        C  0.48312372  0.36250523  0.36004728     0.19200
C575        C  0.00921182  0.35362276  0.40947324    -0.55700
C576        C  0.01598474  0.38708492  0.38810877     0.08300
C577        C  0.42807577  0.29771944  0.39168462    -0.55200
C578        C  0.43370922  0.33507137  0.37582025     0.08900
H579        H  0.49354056  0.26653907  0.36435118     0.13400
H580        H  0.48795937  0.38861791  0.34199867    -0.00900
H581        H  0.03391264  0.35879170  0.42804497     0.13700
H582        H  0.39518326  0.27116658  0.40138541     0.13500
C583        C  0.34017884  0.33302240  0.42580387     0.85300
C584        C  0.35953760  0.38322773  0.42608411    -0.54900
C585        C  0.37636758  0.40636200  0.39771982     0.08200
C586        C  0.38076265  0.37578458  0.37241737     0.19200
C587        C  0.30887527  0.31422895  0.39576481    -0.55700
C588        C  0.33045076  0.33645408  0.36774179     0.08300
C589        C  0.38235228  0.33250649  0.41862203    -0.55200
C590        C  0.40368717  0.35163485  0.38965529     0.08900
H591        H  0.35797234  0.39881271  0.44780504     0.13400
H592        H  0.39828485  0.39427754  0.34993065    -0.00900
H593        H  0.27409405  0.28472917  0.39638618     0.13700
H594        H  0.39323765  0.31608820  0.43568201     0.13500
C595        C  0.30320239  0.45017293  0.25730285     0.85300
C596        C  0.26380866  0.45520436  0.26444904    -0.54900
C597        C  0.24145651  0.43697640  0.29331117     0.08200
C598        C  0.26209656  0.41105220  0.31147999     0.19200
C599        C  0.33529908  0.46819872  0.28724419    -0.55700
C600        C  0.31353668  0.44834362  0.31581109     0.08300
C601        C  0.27903069  0.39917814  0.25787509    -0.55200
C602        C  0.26349079  0.37794518  0.28697865     0.08900
H603        H  0.25428427  0.47198009  0.24664937     0.13400
H604        H  0.24406392  0.39393873  0.33416717    -0.00900
H605        H  0.37084557  0.49612950  0.28608473     0.13700
H606        H  0.27810085  0.38136558  0.23652818     0.13500
C607        C  0.16909887  0.48459208  0.27695615     0.85300
C608        C  0.13442563  0.43551090  0.26801985    -0.54900
C609        C  0.12549019  0.40157216  0.28991656     0.08200
C610        C  0.15792446  0.42204267  0.31920727     0.19200
C611        C  0.15126125  0.48928760  0.30855377    -0.55700
C612        C  0.14596011  0.45750318  0.33157509     0.08300
C613        C  0.21287443  0.48735056  0.28728818    -0.55200
C614        C  0.20818634  0.45114534  0.30447428     0.08900
H615        H  0.11365039  0.43063317  0.24718927     0.13400
H616        H  0.15332203  0.39650804  0.33769707    -0.00900
H617        H  0.14941905  0.01604643  0.31275273     0.13700
H618        H  0.24569185  0.51457439  0.27802994     0.13500
C619        C  0.31521879  0.30235096  0.28026028     0.85300
C620        C  0.30263984  0.33742455  0.27304686    -0.54900
C621        C  0.27414083  0.34100026  0.29349565     0.08200
C622        C  0.26194655  0.30760342  0.32205330     0.19200
C623        C  0.33911337  0.31817735  0.31231545    -0.55700
C624        C  0.31137196  0.32032256  0.33514791     0.08300
C625        C  0.27259177  0.25762414  0.28974070    -0.55200
C626        C  0.23990903  0.25964852  0.30607792     0.08900
H627        H  0.32228652  0.36250581  0.25442321     0.13400
H628        H  0.24008062  0.30945934  0.34037327    -0.00900
H629        H  0.37378513  0.32643820  0.31686864     0.13700
H630        H  0.26680370  0.22629543  0.27999996     0.13500
C631        C  0.98260278  0.15311426  0.27877587     0.85300
C632        C  0.03203781  0.18116830  0.26634453    -0.54900
C633        C  0.06628899  0.20269427  0.28863373     0.08200
C634        C  0.04534406  0.20660434  0.31991797     0.19200
C635        C  0.48191367  0.12624433  0.30521365    -0.55700
C636        C  0.01456065  0.15537076  0.33125450     0.08300
C637        C  0.97403118  0.18752590  0.29309669    -0.55200
C638        C  0.01118329  0.22239970  0.30897656     0.08900
H639        H  0.03882173  0.18199450  0.24115662     0.13400
H640        H  0.07131729  0.22922333  0.33786416    -0.00900
H641        H  0.45688141  0.09024993  0.30862481     0.13700
H642        H  0.94505766  0.18939442  0.28481237     0.13500
C643        C  0.00754075  0.31461640  0.25784117     0.85300
C644        C  0.48992270  0.32618692  0.28535793    -0.54900
C645        C  0.01007171  0.32727303  0.31558599     0.08200
C646        C  0.04910888  0.31788160  0.31204720     0.19200
C647        C  0.05866764  0.34771421  0.25762051    -0.55700
C648        C  0.08170076  0.35430758  0.28595230     0.08300
C649        C  0.00461088  0.27113491  0.26666213    -0.55200
C650        C  0.02383320  0.26966410  0.29570881     0.08900
H651        H  0.46089080  0.33024923  0.28418364     0.13400
H652        H  0.06662138  0.31926947  0.33501341    -0.00900
H653        H  0.07527151  0.36463533  0.23533426     0.13700
H654        H  0.48936423  0.24439778  0.24681609     0.13500
C655        C  0.14242355  0.16023332  0.25970120     0.85300
C656        C  0.13299822  0.13197355  0.29071346    -0.54900
C657        C  0.13358256  0.15379723  0.31796425     0.08200
C658        C  0.14391728  0.20267556  0.31148995     0.19200
C659        C  0.10772650  0.17346592  0.25933026    -0.55700
C660        C  0.10633900  0.19562967  0.28578538     0.08300
C661        C  0.18663581  0.20492451  0.26511952    -0.55200
C662        C  0.19092388  0.22681236  0.29337599     0.08900
H663        H  0.12835568  0.09864571  0.29125186     0.13400
H664        H  0.14440141  0.22027711  0.33349426    -0.00900
H665        H  0.08533882  0.16368383  0.23877307     0.13700
H666        H  0.21363829  0.21710510  0.24743779     0.13500
C667        C  0.34502982  0.81801571  0.94562252     0.85300
C668        C  0.30908140  0.76971448  0.93569988    -0.54900
C669        C  0.29728799  0.73476049  0.95716490     0.08200
C670        C  0.32852904  0.75311423  0.98707327     0.19200
C671        C  0.32590230  0.82286128  0.97669316    -0.55700
C672        C  0.31835041  0.79000177  0.99958855     0.08300
C673        C  0.38730543  0.81865003  0.95759944    -0.55200
C674        C  0.37948284  0.78018355  0.97316494     0.08900
H675        H  0.29004911  0.76673580  0.91443502     0.13400
H676        H  0.32182786  0.72652290  0.00527758    -0.00900
H677        H  0.31985428  0.84985579  0.98068692     0.13700
H678        H  0.42088909  0.84425119  0.94827546     0.13500
C679        C  0.17739951  0.65066560  0.92461648     0.85300
C680        C  0.17562932  0.60736768  0.93192284    -0.54900
C681        C  0.19436150  0.60468381  0.96075780     0.08200
C682        C  0.21963311  0.65189028  0.97806531     0.19200
C683        C  0.15858584  0.66036789  0.95478514    -0.55700
C684        C  0.18054244  0.66060468  0.98290004     0.08300
C685        C  0.22821902  0.68473595  0.92462693    -0.55200
C686        C  0.25165695  0.68948383  0.95257266     0.08900
H687        H  0.15898067  0.57990561  0.91487651     0.13400
H688        H  0.23753793  0.65244258  0.00062684    -0.00900
H689        H  0.12928629  0.66400687  0.95421898     0.13700
H690        H  0.24393343  0.70269204  0.90258118     0.13500
C691        C  0.14639228  0.48684311  0.94417357     0.85300
C692        C  0.19595640  0.51239221  0.93190378    -0.54900
C693        C  0.23060135  0.53371369  0.95404263     0.08200
C694        C  0.21049409  0.53878048  0.98523243     0.19200
C695        C  0.14675344  0.95951611  0.97377856    -0.55700
C696        C  0.17788588  0.98590780  0.99728858     0.08300
C697        C  0.14041975  0.52314437  0.95816532    -0.55200
C698        C  0.17851094  0.55682548  0.97408969     0.08900
H699        H  0.20239939  0.51259363  0.90674472     0.13400
H700        H  0.23686413  0.56065765  0.00322368    -0.00900
H701        H  0.12162058  0.92343310  0.97665447     0.13700
H702        H  0.11278471  0.52705493  0.94958205     0.13500
C703        C  0.30843766  0.99109509  0.92536111     0.85300
C704        C  0.30312687  0.96410666  0.95648324    -0.54900
C705        C  0.30373140  0.98571488  0.98392637     0.08200
C706        C  0.31001233  0.53577379  0.97609579     0.19200
C707        C  0.27242115  0.50559827  0.92451597    -0.55700
C708        C  0.27175856  0.52836987  0.95069835     0.08300
C709        C  0.35131854  0.53561849  0.92963382    -0.55200
C710        C  0.35704175  0.55844073  0.95762168     0.08900
H711        H  0.30001600  0.93146034  0.95686579     0.13400
H712        H  0.31131649  0.55436899  0.99775371    -0.00900
H713        H  0.24938471  0.49531676  0.90423171     0.13700
H714        H  0.37793666  0.54672901  0.91174306     0.13500
C715        C  0.48441107  0.62947884  0.94596389     0.85300
C716        C  0.47398523  0.66570258  0.93698355    -0.54900
C717        C  0.44668719  0.67180320  0.95718885     0.08200
C718        C  0.43125476  0.63823704  0.98588431     0.19200
C719        C  0.50619258  0.64386461  0.97885501    -0.55700
C720        C  0.47904581  0.64850557  0.00048715     0.08300
C721        C  0.43885882  0.58603946  0.95355302    -0.55200
C722        C  0.40706657  0.59005764  0.96977075     0.08900
H723        H  0.49357282  0.68911761  0.91776724     0.13400
H724        H  0.40959406  0.64194170  0.00332600    -0.00900
H725        H  0.04121784  0.65630268  0.98202166     0.13700
H726        H  0.43093153  0.55410760  0.94361582     0.13500
C727        C  0.47191832  0.78303603  0.92188345     0.85300
C728        C  0.42768689  0.78012532  0.92893140    -0.54900
C729        C  0.40785124  0.76200572  0.95856605     0.08200
C730        C  0.43387777  0.74125276  0.97614375     0.19200
C731        C  0.50335741  0.80453324  0.95157775    -0.55700
C732        C  0.48328943  0.78280364  0.97999952     0.08300
C733        C  0.45610429  0.73381608  0.92260767    -0.55200
C734        C  0.43999377  0.71127770  0.95122486     0.08900
H735        H  0.41498622  0.79484320  0.91187341     0.13400
H736        H  0.41768516  0.72308274  0.99902736    -0.00900
H737        H  0.03854350  0.82646090  0.95138735     0.13700
H738        H  0.45882766  0.71840507  0.90119409     0.13500
C739        C  0.30318722  0.80337802  0.08998010     0.85300
C740        C  0.25162842  0.77257801  0.09017504    -0.54900
C741        C  0.22919004  0.76626348  0.06171389     0.08200
C742        C  0.26289488  0.80262976  0.03581387     0.19200
C743        C  0.32052215  0.79036210  0.06063825    -0.55700
C744        C  0.30017657  0.79084223  0.03195484     0.08300
C745        C  0.30890225  0.84807321  0.08130515    -0.55200
C746        C  0.29014566  0.85099264  0.05249809     0.08900
H747        H  0.23406457  0.75552789  0.11227682     0.13400
H748        H  0.24576479  0.80247188  0.01295788    -0.00900
H749        H  0.34848605  0.78469126  0.06209993     0.13700
H750        H  0.32621554  0.87538186  0.09838007     0.13500
C751        C  0.00857339  0.66811513  0.09084867     0.85300
C752        C  0.03302905  0.71905756  0.09058281    -0.54900
C753        C  0.04941528  0.74066588  0.06174992     0.08200
C754        C  0.05071769  0.70757508  0.03708631     0.19200
C755        C  0.47813373  0.64797040  0.06133008    -0.55700
C756        C  0.99938995  0.67022847  0.03245674     0.08300
C757        C  0.04779951  0.66279174  0.08412243    -0.55200
C758        C  0.07065413  0.68134903  0.05547300     0.08900
H759        H  0.03470158  0.73671611  0.11218629     0.13400
H760        H  0.06906122  0.72459558  0.01446950    -0.00900
H761        H  0.44349754  0.61831903  0.06268160     0.13700
H762        H  0.05682546  0.64572864  0.10200848     0.13500
C763        C  0.99843958  0.81705731  0.06709238     0.85300
C764        C  0.47458775  0.80366567  0.03443301    -0.54900
C765        C  0.00131206  0.79538135  0.01309496     0.08200
C766        C  0.05138676  0.81028361  0.02599698     0.19200
C767        C  0.01306949  0.78394096  0.07612045    -0.55700
C768        C  0.04043572  0.77876559  0.05546536     0.08300
C769        C  0.04022000  0.86172593  0.05626464    -0.55200
C770        C  0.07314513  0.85930350  0.04050792     0.08900
H771        H  0.43988267  0.79503125  0.02945692     0.13400
H772        H  0.07306514  0.80772723  0.00789248    -0.00900
H773        H  0.99520793  0.76103677  0.09611162     0.13700
H774        H  0.04611861  0.89329353  0.06560594     0.13500
C775        C  0.14418920  0.63455989  0.07098659     0.85300
C776        C  0.16018673  0.62938112  0.03862956    -0.54900
C777        C  0.16420579  0.66095526  0.01580074     0.08200
C778        C  0.15339932  0.69676005  0.02892266     0.19200
C779        C  0.17977548  0.68383101  0.07918308    -0.55700
C780        C  0.18721806  0.71763784  0.05748469     0.08300
C781        C  0.10023370  0.63204776  0.06192079    -0.55200
C782        C  0.10417666  0.66776680  0.04467258     0.08900
H783        H  0.16712674  0.60316434  0.03391555     0.13400
H784        H  0.15701442  0.72206314  0.01057883    -0.00900
H785        H  0.20196996  0.68922812  0.09938034     0.13700
H786        H  0.06758889  0.60455218  0.07117253     0.13500
C787        C  0.33185908  0.96912531  0.07045847     0.85300
C788        C  0.33977726  0.93356768  0.05758911    -0.54900
C789        C  0.30336105  0.89923638  0.04062518     0.08200
C790        C  0.27043701  0.91605101  0.02824939     0.19200
C791        C  0.33282408  0.99490546  0.04016875    -0.55700
C792        C  0.30271718  0.96717765  0.01685249     0.08300
C793        C  0.28189077  0.94209193  0.08162988    -0.55200
C794        C  0.24840976  0.92073110  0.05884944     0.08900
H795        H  0.36830902  0.93151661  0.06665787     0.13400
H796        H  0.24511087  0.89377434  0.00986638    -0.00900
H797        H  0.35034749  0.53259254  0.03669288     0.13700
H798        H  0.27419814  0.94122658  0.10671375     0.13500
C799        C  0.16857277  0.95911029  0.08792289     0.85300
C800        C  0.20476531  0.94789523  0.08798052    -0.54900
C801        C  0.20734189  0.92660709  0.06136705     0.08200
C802        C  0.16906566  0.91836617  0.03573723     0.19200
C803        C  0.17690270  0.98744383  0.05715472    -0.55700
C804        C  0.17721113  0.96653948  0.02972536     0.08300
C805        C  0.12532883  0.91345002  0.08230931    -0.55200
C806        C  0.12193481  0.89229539  0.05382169     0.08900
H807        H  0.22727818  0.95848797  0.10861511     0.13400
H808        H  0.16942760  0.90159778  0.01352011    -0.00900
H809        H  0.18356488  0.52681739  0.05552375     0.13700
H810        H  0.09795181  0.90029357  0.09976962     0.13500
In811      In  0.34739518  0.83838066  0.84863833     1.36900
C812        C  0.42738974  0.85445099  0.83885509     0.76400
O813        O  0.33742817  0.78966619  0.81290059    -0.62100
O814        O  0.34826795  0.85330184  0.79449296    -0.53000
C815        C  0.26197305  0.77292561  0.84580375     0.69100
O816        O  0.29440357  0.76750596  0.85378805    -0.47800
C817        C  0.35532941  0.84515952  0.91385262     0.73800
O818        O  0.39455843  0.81831077  0.85162405    -0.59700
O819        O  0.32888213  0.85462957  0.89889204    -0.49800
O820        O  0.42145059  0.88751516  0.83395119    -0.56100
C821        C  0.34178605  0.81416276  0.78844332     0.83900
O822        O  0.27235653  0.81389323  0.84271832    -0.58000
O823        O  0.38130246  0.84179332  0.89511695    -0.61300
In824      In  0.30108765  0.94845986  0.83188582     1.36900
C825        C  0.22268547  0.93712315  0.84077231     0.76400
O826        O  0.26335121  0.93297075  0.78460270    -0.62100
O827        O  0.32532452  0.93584183  0.78307063    -0.53000
C828        C  0.38566317  0.51103354  0.83501496     0.69100
O829        O  0.35324552  0.51610539  0.82612429    -0.47800
C830        C  0.30749240  0.97213872  0.89243614     0.73800
O831        O  0.25654057  0.97228952  0.82771086    -0.59700
O832        O  0.30206996  0.93348250  0.88601835    -0.49800
O833        O  0.22679530  0.90308214  0.84637357    -0.56100
C834        C  0.29526886  0.93868221  0.76705504     0.83900
O835        O  0.37596904  0.97396746  0.83674068    -0.58000
O836        O  0.31094465  0.99653491  0.86818143    -0.61300
In837      In  0.14388575  0.65452781  0.82942142     1.36900
C838        C  0.12280637  0.57207780  0.83022905     0.76400
O839        O  0.17920960  0.64440358  0.86826262    -0.62100
O840        O  0.12594245  0.65545443  0.88240601    -0.53000
C841        C  0.21776285  0.73274898  0.83747139     0.69100
O842        O  0.21725225  0.69808168  0.82780864    -0.47800
C843        C  0.13993975  0.65869691  0.76498269     0.73800
O844        O  0.16265219  0.60592920  0.82364668    -0.59700
O845        O  0.10767412  0.62545836  0.78033679    -0.49800
O846        O  0.09090535  0.57989915  0.83339863    -0.56100
C847        C  0.15863256  0.64964797  0.89099208     0.83900
O848        O  0.17886095  0.72885193  0.83996037    -0.58000
O849        O  0.16255665  0.69310857  0.78217625    -0.61300
In850      In  0.12767978  0.96693086  0.84951072     1.36900
C851        C  0.11857375  0.52935897  0.83818764     0.76400
O852        O  0.18301008  0.00838945  0.81594601    -0.62100
O853        O  0.11828178  0.95398929  0.79625931    -0.53000
C854        C  0.18457408  0.94107000  0.84985378     0.69100
O855        O  0.19106854  0.47452100  0.85804505    -0.47800
C856        C  0.12079442  0.96823571  0.91388944     0.73800
O857        O  0.15408593  0.53157594  0.84987342    -0.59700
O858        O  0.11246800  0.93229591  0.90044868    -0.49800
O859        O  0.08229862  0.48962443  0.83466755    -0.56100
C860        C  0.15955092  0.98779971  0.79114865     0.83900
O861        O  0.14200464  0.91097303  0.84580630    -0.58000
O862        O  0.12187555  0.99660509  0.89437979    -0.61300
In863      In  0.50344189  0.63022221  0.85145904     1.36900
C864        C  0.02751880  0.71083670  0.84926487     0.76400
O865        O  0.48241240  0.59055461  0.89820733    -0.62100
O866        O  0.03604851  0.63817714  0.90205297    -0.53000
C867        C  0.42988339  0.55163531  0.84270075     0.69100
O868        O  0.43010015  0.58617820  0.85223707    -0.47800
C869        C  0.98635417  0.63448038  0.78834716     0.73800
O870        O  0.48443472  0.67877336  0.85812456    -0.59700
O871        O  0.01815913  0.62719637  0.79599406    -0.49800
O872        O  0.05892343  0.70215901  0.84692889    -0.56100
C873        C  0.99601144  0.62088523  0.91388506     0.83900
O874        O  0.46898476  0.55594917  0.84015828    -0.58000
O875        O  0.46873542  0.64124456  0.81263858    -0.61300
In876      In  0.52094064  0.82398910  0.82989434     1.36900
C877        C  0.46594420  0.85169483  0.82924095     0.76400
O878        O  0.46675692  0.78421285  0.86455033    -0.62100
O879        O  0.03389658  0.83275815  0.88441781    -0.53000
C880        C  0.03137775  0.75359748  0.84137865     0.69100
O881        O  0.49095157  0.75258406  0.83236063    -0.47800
C882        C  0.02708914  0.82047147  0.76576425     0.73800
O883        O  0.45575136  0.81278502  0.82034234    -0.59700
O884        O  0.02920812  0.85324241  0.77987244    -0.49800
O885        O  0.50837285  0.88113114  0.83470821    -0.56100
C886        C  0.99250612  0.79929512  0.88980532     0.83900
O887        O  0.06710932  0.79378521  0.84461230    -0.58000
O888        O  0.53121947  0.79537417  0.78537233    -0.61300
C889        C  0.34527844  0.98196190  0.59124309     0.85300
C890        C  0.32695809  0.99337883  0.62062245    -0.54900
C891        C  0.34802243  0.99372033  0.64905348     0.08200
C892        C  0.38698747  0.98415156  0.64511914     0.19200
C893        C  0.39501659  0.51480297  0.59167163    -0.55700
C894        C  0.41817426  0.52074267  0.61987851     0.08300
C895        C  0.34227062  0.93826413  0.59961021    -0.55200
C896        C  0.36150019  0.93605270  0.62841085     0.08900
H897        H  0.29800759  0.99756712  0.61939353     0.13400
H898        H  0.40442767  0.98519837  0.66804037    -0.00900
H899        H  0.41144577  0.53234075  0.56948325     0.13700
H900        H  0.32550652  0.91064240  0.58271547     0.13500
C901        C  0.00536449  0.65165456  0.60894046     0.85300
C902        C  0.47239243  0.60175054  0.60247201    -0.54900
C903        C  0.46292112  0.56719896  0.62387842     0.08200
C904        C  0.49586004  0.58651726  0.65299136     0.19200
C905        C  0.99001087  0.65705734  0.64141114    -0.55700
C906        C  0.48552519  0.62280566  0.66605980     0.08300
C907        C  0.04867066  0.65264134  0.61750237    -0.55200
C908        C  0.04396656  0.61652327  0.63475529     0.08900
H909        H  0.45054604  0.59793243  0.58249084     0.13400
H910        H  0.49073099  0.56042411  0.67116042    -0.00900
H911        H  0.98376518  0.68371704  0.64624607     0.13700
H912        H  0.08143169  0.67965577  0.60805292     0.13500
C913        C  0.14148838  0.61736460  0.59022953     0.85300
C914        C  0.10106802  0.62121576  0.59615444    -0.54900
C915        C  0.07788244  0.60282381  0.62469499     0.08200
C916        C  0.09860856  0.57771682  0.64380145     0.21000
C917        C  0.17234295  0.63604889  0.62048127    -0.55700
C918        C  0.14968004  0.61592610  0.64866039     0.08300
C919        C  0.11852465  0.56659513  0.59101066    -0.55200
C920        C  0.10142325  0.54494272  0.61971832     0.08900
H921        H  0.09154473  0.63736346  0.57781998     0.13400
H922        H  0.08009274  0.56064841  0.66635718    -0.00900
H923        H  0.20768273  0.66451939  0.61980243     0.13700
H924        H  0.11809844  0.54895234  0.56972758     0.13500
C925        C  0.14921693  0.96316797  0.61394241     0.85300
C926        C  0.13732515  0.50131881  0.60600063    -0.54900
C927        C  0.10931974  0.50609927  0.62617349     0.08200
C928        C  0.09778802  0.97118679  0.65576045     0.19200
C929        C  0.17412202  0.97997075  0.64569490    -0.55700
C930        C  0.14749736  0.98383853  0.66852297     0.08300
C931        C  0.10613186  0.91915354  0.62404419    -0.55200
C932        C  0.07411416  0.92241809  0.64025447     0.08900
H933        H  0.15868653  0.52672299  0.58803643     0.13400
H934        H  0.07676990  0.97431203  0.67411582    -0.00900
H935        H  0.20904021  0.98873627  0.64984924     0.13700
H936        H  0.09939418  0.88734770  0.61456466     0.13500
C937        C  0.47541087  0.82034496  0.59223138     0.85300
C938        C  0.46586726  0.79228595  0.62330941    -0.54900
C939        C  0.46713247  0.81464587  0.65042724     0.08200
C940        C  0.47794553  0.86370935  0.64381881     0.19200
C941        C  0.44116369  0.83422559  0.59191368    -0.55700
C942        C  0.44035744  0.85687779  0.61830238     0.08300
C943        C  0.01949793  0.86734517  0.59938224    -0.55200
C944        C  0.02456206  0.88969275  0.62764110     0.08900
H945        H  0.46085110  0.75879138  0.62401352     0.13400
H946        H  0.47873562  0.88153879  0.66577582    -0.00900
H947        H  0.41866411  0.82445472  0.57148966     0.13700
H948        H  0.04650834  0.87845029  0.58185381     0.13500
C949        C  0.31697870  0.81743897  0.61170030     0.85300
C950        C  0.36630477  0.84344545  0.59921578    -0.54900
C951        C  0.40082690  0.86476341  0.62131119     0.08200
C952        C  0.38071936  0.87046857  0.65249800     0.19200
C953        C  0.31686595  0.79180534  0.64171895    -0.55700
C954        C  0.34832759  0.81948140  0.66441924     0.08300
C955        C  0.31046956  0.85369337  0.62507877    -0.55200
C956        C  0.34803131  0.88803320  0.64105902     0.08900
H957        H  0.37264572  0.84317092  0.57411602     0.13400
H958        H  0.40714141  0.89280415  0.67030546    -0.00900
H959        H  0.29196808  0.75587747  0.64565651     0.13700
H960        H  0.28212339  0.85646146  0.61656311     0.13500
C961        C  0.47044544  0.63452830  0.75634685     0.85300
C962        C  0.41932970  0.60130226  0.75661726    -0.54900
C963        C  0.39619895  0.59534106  0.72845018     0.08200
C964        C  0.42859184  0.63209316  0.70246293     0.19200
C965        C  0.48878938  0.62310437  0.72686577    -0.55700
C966        C  0.46744297  0.62258518  0.69845464     0.08300
C967        C  0.47352358  0.67827609  0.74782327    -0.55200
C968        C  0.45413262  0.68018283  0.71894902     0.08900
H969        H  0.40282805  0.58333790  0.77871711     0.13400
H970        H  0.41092617  0.63093641  0.67962980    -0.00900
H971        H  0.01449555  0.61772738  0.72660647     0.13700
H972        H  0.49067723  0.70615473  0.76447281     0.13500
C973        C  0.49793510  0.79750480  0.73567537     0.85300
C974        C  0.50515087  0.76221163  0.72134325    -0.54900
C975        C  0.46755517  0.72782500  0.70562804     0.08200
C976        C  0.43456939  0.74515882  0.69446692     0.19200
C977        C  0.49794100  0.82395064  0.70612159    -0.55700
C978        C  0.46658671  0.79639747  0.68321324     0.08300
C979        C  0.44830583  0.77076607  0.74784622    -0.55200
C980        C  0.41389842  0.74990234  0.72558755     0.08900
H981        H  0.53368472  0.75955074  0.72956356     0.13400
H982        H  0.40843770  0.72306957  0.67641997    -0.00900
H983        H  0.02004730  0.86173660  0.70460890     0.13700
H984        H  0.44144623  0.76933258  0.77310713     0.13500
C985        C  0.34027711  0.79473080  0.75568677     0.85300
C986        C  0.37403192  0.78036070  0.75523240    -0.54900
C987        C  0.37423838  0.75775408  0.72873628     0.08200
C988        C  0.33613788  0.75139376  0.70368936     0.19200
C989        C  0.34955008  0.82313817  0.72470723    -0.55700
C990        C  0.34764167  0.80087877  0.69729921     0.08300
C991        C  0.29508475  0.75060877  0.75066817    -0.55200
C992        C  0.28945907  0.72813180  0.72248208     0.08900
H993        H  0.39708926  0.79004277  0.77542015     0.13400
H994        H  0.33459321  0.73343273  0.68159421    -0.00900
H995        H  0.35512629  0.85685224  0.72433066     0.13700
H996        H  0.26858548  0.73905282  0.76870907     0.13500
C997        C  0.30484103  0.96695101  0.73566471     0.85300
C998        C  0.32130750  0.96061849  0.70385607    -0.54900
C999        C  0.32929007  0.99378725  0.68117653     0.08200
C1000       C  0.31874911  0.52966853  0.69536909     0.19200
C1001       C  0.34233182  0.51384761  0.74562643    -0.55700
C1002       C  0.35196608  0.54856014  0.72430068     0.08300
C1003       C  0.26295444  0.96819711  0.72527949    -0.55200
C1004       C  0.26875850  0.50264198  0.71062553     0.08900
H1005       H  0.32640847  0.93308458  0.69947794     0.13400
H1006       H  0.32437857  0.55592791  0.67719469    -0.00900
H1007       H  0.36445205  0.51735909  0.76545988     0.13700
H1008       H  0.22953431  0.94381967  0.73542528     0.13500
C1009       C  0.17332489  0.50044684  0.75882060     0.85300
C1010       C  0.19262259  0.55051756  0.75852840    -0.54900
C1011       C  0.20966895  0.57321948  0.73014237     0.08200
C1012       C  0.21441964  0.54213777  0.70524847     0.19200
C1013       C  0.14889505  0.98381348  0.72904062    -0.55700
C1014       C  0.16415038  0.50217137  0.70056142     0.08300
C1015       C  0.21581026  0.49999956  0.75235961    -0.55200
C1016       C  0.23769075  0.51880328  0.72339500     0.08900
H1017       H  0.19142058  0.56660297  0.78012797     0.13400
H1018       H  0.23191851  0.56004960  0.68260413    -0.00900
H1019       H  0.11509269  0.95301966  0.73078874     0.13700
H1020       H  0.23768747  0.99613969  0.77001838     0.13500
C1021       C  0.16289906  0.65338067  0.73542102     0.85300
C1022       C  0.14087913  0.63775710  0.70278452    -0.54900
C1023       C  0.16861345  0.63405778  0.68115046     0.08200
C1024       C  0.21697238  0.64602512  0.69549814     0.19200
C1025       C  0.17521889  0.61860131  0.74477102    -0.55700
C1026       C  0.20269051  0.61278382  0.72439428     0.08300
C1027       C  0.20738320  0.69746844  0.72737708    -0.55200
C1028       C  0.23968331  0.69447825  0.71105930     0.08900
H1029       H  0.10662757  0.63007422  0.69720018     0.13400
H1030       H  0.23900999  0.64301072  0.67798490    -0.00900
H1031       H  0.15633367  0.59555861  0.76432700     0.13700
H1032       H  0.21432271  0.72922619  0.73699491     0.13500
In1033     In  0.30870168  0.98232540  0.49678097     1.36900
C1034       C  0.28724065  0.89916825  0.49858817     0.76400
O1035       O  0.34575443  0.97407003  0.53505217    -0.62100
O1036       O  0.29299031  0.98585119  0.54958362    -0.53000
C1037       C  0.38208988  0.56301610  0.50540746     0.69100
O1038       O  0.38229026  0.52889798  0.49537487    -0.47800
C1039       C  0.30181466  0.98705045  0.43278861     0.73800
O1040       O  0.32602897  0.93268812  0.48960029    -0.59700
O1041       O  0.27217217  0.95222277  0.44832038    -0.49800
O1042       O  0.25600094  0.90740896  0.50386298    -0.56100
C1043       C  0.32594738  0.98024552  0.55783838     0.83900
O1044       O  0.34282466  0.55826869  0.50826016    -0.58000
O1045       O  0.32124475  0.02177371  0.44997425    -0.61300
In1046     In  0.16913053  0.96223498  0.51710461     1.36900
C1047       C  0.19308608  0.54625239  0.51407483     0.76400
O1048       O  0.13048925  0.94203878  0.56023137    -0.62100
O1049       O  0.20153640  0.96904687  0.56883722    -0.53000
C1050       C  0.09887525  0.88108982  0.50787888     0.69100
O1051       O  0.09766578  0.91550273  0.51477798    -0.47800
C1052       C  0.15314870  0.97136021  0.45585764     0.73800
O1053       O  0.15336148  0.51360946  0.52121565    -0.59700
O1054       O  0.18423852  0.96299232  0.46336286    -0.49800
O1055       O  0.22393143  0.53686431  0.51128512    -0.56100
C1056       C  0.16234412  0.95606169  0.58070753     0.83900
O1057       O  0.13872631  0.88664641  0.50741817    -0.58000
O1058       O  0.13412817  0.97691288  0.47943332    -0.61300
In1059     In  0.18707468  0.65572803  0.49755972     1.36900
C1060       C  0.12420048  0.67339170  0.50068512     0.76400
O1061       O  0.13780601  0.61356957  0.53334698    -0.62100
O1062       O  0.20246081  0.67064155  0.55091376    -0.53000
C1063       C  0.19699302  0.58876230  0.50555186     0.69100
O1064       O  0.16113879  0.58573817  0.49372246    -0.47800
C1065       C  0.19357479  0.66032829  0.43293626     0.73800
O1066       O  0.11646622  0.63449693  0.49384373    -0.59700
O1067       O  0.18861745  0.68822581  0.44825761    -0.49800
O1068       O  0.16622490  0.70601177  0.50288706    -0.56100
C1069       C  0.16226475  0.63561884  0.55735135     0.83900
O1070       O  0.23186763  0.62875592  0.51065777    -0.58000
O1071       O  0.20860778  0.64119596  0.45032342    -0.61300
In1072     In  0.51103077  0.66921360  0.51552485     1.36900
C1073       C  0.08520071  0.67648439  0.50838423     0.76400
O1074       O  0.50136461  0.62198818  0.47922864    -0.62100
O1075       O  0.01015050  0.68645146  0.46037593    -0.53000
C1076       C  0.42602974  0.60354435  0.51357220     0.69100
O1077       O  0.45859114  0.59861214  0.52237454    -0.47800
C1078       C  0.01212579  0.68044830  0.57827483     0.73800
O1079       O  0.04960729  0.64110793  0.51981691    -0.59700
O1080       O  0.97905857  0.67686268  0.56199931    -0.49800
O1081       O  0.08289106  0.71152589  0.50294481    -0.56100
C1082       C  0.50529753  0.64691404  0.45519672     0.83900
O1083       O  0.43615300  0.64427604  0.50916408    -0.58000
O1084       O  0.54909443  0.68593370  0.56262477    -0.61300
In1085     In  0.29239493  0.78865724  0.51807935     1.36900
C1086       C  0.28420500  0.85673321  0.50660092     0.76400
O1087       O  0.34551490  0.83066413  0.48358783    -0.62100
O1088       O  0.27985308  0.77669651  0.46463175    -0.53000
C1089       C  0.34864244  0.76144462  0.51692983     0.69100
O1090       O  0.35867721  0.80046995  0.52558177    -0.47800
C1091       C  0.28722134  0.79214407  0.58276285     0.73800
O1092       O  0.32066874  0.85993837  0.51728694    -0.59700
O1093       O  0.28819624  0.76033381  0.56972833    -0.49800
O1094       O  0.24847976  0.81641625  0.50367770    -0.56100
C1095       C  0.32067318  0.81107041  0.45899894     0.83900
O1096       O  0.30602710  0.73189978  0.51204061    -0.58000
O1097       O  0.27647793  0.81283305  0.56329854    -0.61300
In1098     In  0.46892411  0.77341405  0.50002679     1.36900
C1099       C  0.38762050  0.75805583  0.50844403     0.76400
O1100       O  0.45258384  0.79476235  0.45663352    -0.62100
O1101       O  0.47344846  0.74848064  0.44824811    -0.53000
C1102       C  0.05435178  0.84028615  0.50090805     0.69100
O1103       O  0.02287464  0.84685267  0.49299108    -0.47800
C1104       C  0.47484981  0.80011548  0.55998042     0.73800
O1105       O  0.42226018  0.79470801  0.49845805    -0.59700
O1106       O  0.46693428  0.76033793  0.55478356    -0.49800
O1107       O  0.39228692  0.72401087  0.51164118    -0.56100
C1108       C  0.46367248  0.77643425  0.43614077     0.83900
O1109       O  0.04196650  0.79896764  0.50595001    -0.58000
O1110       O  0.48120632  0.82417173  0.53500350    -0.61300
In1111     In  0.35129777  0.99325205  0.16452302     1.36900
C1112       C  0.35667781  0.92362796  0.17449811     0.76400
O1113       O  0.37588007  0.97773679  0.11874565    -0.62100
O1114       O  0.34741431  0.52141635  0.11472200    -0.53000
C1115       C  0.29171696  0.01551729  0.16461486     0.69100
O1116       O  0.28336309  0.97652108  0.15743191    -0.47800
C1117       C  0.32353824  0.46900211  0.22417825     0.73800
O1118       O  0.32064668  0.92118466  0.16358187    -0.59700
O1119       O  0.36390632  0.50385998  0.21807329    -0.49800
O1120       O  0.39277506  0.96337824  0.17766726    -0.56100
C1121       C  0.35523001  0.49549887  0.09947521     0.83900
O1122       O  0.33277694  0.54483010  0.17189679    -0.58000
O1123       O  0.30117705  0.95291997  0.20069161    -0.61300
In1124     In  0.17228572  0.00449147  0.18013310     1.36900
C1125       C  0.25203503  0.01800239  0.17148831     0.76400
O1126       O  0.15979294  0.95347582  0.14508005    -0.62100
O1127       O  0.17527856  0.52327959  0.12723031    -0.53000
C1128       C  0.08512094  0.94405528  0.17929446     0.69100
O1129       O  0.11604307  0.93766003  0.18923722    -0.47800
C1130       C  0.17605667  0.51285555  0.24602797     0.73800
O1131       O  0.21677472  0.98084031  0.18044594    -0.59700
O1132       O  0.14361266  0.51107986  0.22995066    -0.49800
O1133       O  0.24783001  0.55070838  0.17051792    -0.56100
C1134       C  0.16999244  0.48474457  0.12052717     0.83900
O1135       O  0.09780199  0.98514914  0.17292885    -0.58000
O1136       O  0.19674778  0.99146396  0.22443120    -0.61300
In1137     In  0.47341793  0.81800308  0.16270109     1.36900
C1138       C  0.44823149  0.73339024  0.16270478     0.76400
O1139       O  0.50929990  0.80593853  0.20072217    -0.62100
O1140       O  0.45847062  0.81933779  0.21615758    -0.53000
C1141       C  0.04162839  0.90309654  0.17091768     0.69100
O1142       O  0.04494234  0.87039558  0.16261145    -0.47800
C1143       C  0.48234249  0.82470527  0.09952269     0.73800
O1144       O  0.99231172  0.77090166  0.16021451    -0.59700
O1145       O  0.44246390  0.81094746  0.11045315    -0.49800
O1146       O  0.41718434  0.74221954  0.16663807    -0.56100
C1147       C  0.49037217  0.81226248  0.22395629     0.83900
O1148       O  0.00088855  0.89528102  0.17240392    -0.58000
O1149       O  0.51333995  0.83863553  0.12060125    -0.61300
In1150     In  0.45920198  0.62692878  0.18315841     1.36900
C1151       C  0.01767264  0.60404127  0.18018813     0.76400
O1152       O  0.45058831  0.65600736  0.22809682    -0.62100
O1153       O  0.44940365  0.59582985  0.23494088    -0.53000
C1154       C  0.44584600  0.69140193  0.17104111     0.69100
O1155       O  0.98514193  0.69747157  0.18343308    -0.47800
C1156       C  0.48917355  0.64929630  0.12403198     0.73800
O1157       O  0.02677430  0.64275699  0.18884432    -0.59700
O1158       O  0.44820894  0.61516912  0.12948929    -0.49800
O1159       O  0.97522234  0.57315322  0.17625771    -0.56100
C1160       C  0.45380655  0.63043748  0.24796759     0.83900
O1161       O  0.41145765  0.65039112  0.16774392    -0.58000
O1162       O  0.51320991  0.66927520  0.14880873    -0.61300
In1163     In  0.13650889  0.61400557  0.16639575     1.36900
C1164       C  0.21994972  0.68097629  0.16979788     0.76400
O1165       O  0.14199923  0.66083536  0.20179767    -0.62100
O1166       O  0.13526076  0.59904618  0.22066888    -0.53000
C1167       C  0.05663604  0.60114412  0.17139013     0.69100
O1168       O  0.09102304  0.63690998  0.15926594    -0.47800
C1169       C  0.13729317  0.60607485  0.10195718     0.73800
O1170       O  0.18701791  0.68518917  0.16055832    -0.59700
O1171       O  0.17014127  0.61101277  0.11921121    -0.49800
O1172       O  0.21089763  0.64057524  0.17426677    -0.56100
C1173       C  0.13926202  0.63728806  0.22639348     0.83900
O1174       O  0.06121608  0.56753857  0.17748647    -0.58000
O1175       O  0.10118313  0.59049700  0.11800240    -0.61300
In1176     In  0.33634491  0.80027403  0.18530642     1.36900
C1177       C  0.35384813  0.88162702  0.18302782     0.76400
O1178       O  0.32097962  0.76111806  0.23241681    -0.62100
O1179       O  0.37353491  0.82952824  0.23413784    -0.53000
C1180       C  0.26353165  0.72171060  0.17770938     0.69100
O1181       O  0.26325301  0.75574046  0.18783958    -0.47800
C1182       C  0.32126490  0.80394687  0.12372043     0.73800
O1183       O  0.31510198  0.84737691  0.19133557    -0.59700
O1184       O  0.35435200  0.79881526  0.13248163    -0.49800
O1185       O  0.38648596  0.87501965  0.17931885    -0.56100
C1186       C  0.34267663  0.79547158  0.24979334     0.83900
O1187       O  0.30271922  0.72656861  0.17431605    -0.58000
O1188       O  0.30011662  0.80861274  0.14630334    -0.61300
C1189       C  0.32711432  0.98414217  0.40360551     0.85300
C1190       C  0.30760692  0.97249563  0.36999035    -0.54900
C1191       C  0.33622693  0.97003947  0.34849088     0.08200
C1192       C  0.38332841  0.97971321  0.36373608     0.19200
C1193       C  0.33778792  0.94788553  0.41142094    -0.55700
C1194       C  0.36657016  0.94372432  0.39135921     0.08300
C1195       C  0.37227155  0.52936270  0.39479860    -0.55200
C1196       C  0.40453614  0.52657033  0.37827653     0.08900
H1197       H  0.27373286  0.96539408  0.36380151     0.13400
H1198       H  0.40633432  0.97770448  0.34653624    -0.00900
H1199       H  0.31722615  0.92282689  0.42953979     0.13700
H1200       H  0.37926215  0.56097900  0.40473819     0.13500
C1201       C  0.13472713  0.97176374  0.42239395     0.85300
C1202       C  0.08329333  0.94061289  0.42240203    -0.54900
C1203       C  0.06110943  0.93466007  0.39372115     0.08200
C1204       C  0.09466662  0.97048315  0.36791035     0.19200
C1205       C  0.15247169  0.95891878  0.39329250    -0.55700
C1206       C  0.13219699  0.95901597  0.36460181     0.08300
C1207       C  0.13890255  0.51554107  0.41339379    -0.55200
C1208       C  0.12075842  0.51933579  0.38449607     0.08900
H1209       H  0.06579411  0.92310061  0.44442622     0.13400
H1210       H  0.07761836  0.96991846  0.34491244    -0.00900
H1211       H  0.18059472  0.95347863  0.39492358     0.13700
H1212       H  0.15757618  0.54281347  0.43033910     0.13500
C1213       C  0.16481590  0.63646637  0.40315688     0.85300
C1214       C  0.17234110  0.60122896  0.38904683    -0.54900
C1215       C  0.13535626  0.56750152  0.37230488     0.08200
C1216       C  0.10262804  0.58470043  0.36095912     0.19200
C1217       C  0.16542053  0.66320797  0.37349929    -0.55700
C1218       C  0.13478736  0.63593523  0.35019663     0.08300
C1219       C  0.11491368  0.60931188  0.41470178    -0.55200
C1220       C  0.08113845  0.58852498  0.39191966     0.08900
H1221       H  0.20054844  0.59825682  0.39759275     0.13400
H1222       H  0.07700233  0.56287403  0.34256551    -0.00900
H1223       H  0.19010208  0.69931123  0.37011895     0.13700
H1224       H  0.10745465  0.60814800  0.43980300     0.13500
C1225       C  0.50391161  0.62789088  0.42237227     0.85300
C1226       C  0.03943946  0.61733092  0.42081905    -0.54900
C1227       C  0.04026515  0.59446841  0.39472496     0.08200
C1228       C  0.50013455  0.58450721  0.37050382     0.19200
C1229       C  0.51042274  0.65514804  0.39131968    -0.55700
C1230       C  0.50917334  0.63301203  0.36401908     0.08300
C1231       C  0.45980949  0.58213255  0.41820792    -0.55200
C1232       C  0.45420960  0.55985315  0.38992593     0.08900
H1233       H  0.06377733  0.62985365  0.44038950     0.13400
H1234       H  0.49882741  0.56656312  0.34846256    -0.00900
H1235       H  0.01425223  0.68867127  0.38960796     0.13700
H1236       H  0.43355176  0.56967834  0.43653119     0.13500
C1237       C  0.47126234  0.79816612  0.40245555     0.85300
C1238       C  0.48606874  0.79133015  0.37013909    -0.54900
C1239       C  0.49171179  0.82381973  0.34729610     0.08200
C1240       C  0.48262891  0.86115320  0.36049725     0.19200
C1241       C  0.00946672  0.85329832  0.41043300    -0.55700
C1242       C  0.01796435  0.88733008  0.38909860     0.08300
C1243       C  0.42813916  0.79747350  0.39324046    -0.55200
C1244       C  0.43371736  0.83449125  0.37682062     0.08900
H1245       H  0.49251781  0.76472364  0.36566533     0.13400
H1246       H  0.48724781  0.88691999  0.34221345    -0.00900
H1247       H  0.03335400  0.85737792  0.42923824     0.13700
H1248       H  0.39563133  0.77169090  0.40391806     0.13500
C1249       C  0.34028117  0.83168488  0.42621784     0.85300
C1250       C  0.35682414  0.88110703  0.42551422    -0.54900
C1251       C  0.37322399  0.90384801  0.39693429     0.08200
C1252       C  0.37924928  0.87346914  0.37213911     0.19200
C1253       C  0.30918604  0.81038757  0.39619118    -0.55700
C1254       C  0.32970120  0.83206891  0.36775413     0.08300
C1255       C  0.38414561  0.83408499  0.41968788    -0.55200
C1256       C  0.40444089  0.85209556  0.39028017     0.08900
H1257       H  0.35461523  0.89670524  0.44702652     0.13400
H1258       H  0.39606614  0.89154300  0.34936920    -0.00900
H1259       H  0.27526394  0.77966299  0.39722844     0.13700
H1260       H  0.39661992  0.81967169  0.43725376     0.13500
C1261       C  0.30802903  0.95340185  0.25756067     0.85300
C1262       C  0.26430543  0.95144046  0.26393447    -0.54900
C1263       C  0.24282892  0.93270549  0.29293222     0.08200
C1264       C  0.26783460  0.91114381  0.31126499     0.19200
C1265       C  0.33881285  0.97419717  0.28765988    -0.55700
C1266       C  0.31763080  0.95229148  0.31587532     0.08300
C1267       C  0.29113090  0.90387306  0.25816364    -0.55200
C1268       C  0.27431077  0.88102651  0.28658080     0.08900
H1269       H  0.25213603  0.96570516  0.24601126     0.13400
H1270       H  0.25074961  0.89292671  0.33393880    -0.00900
H1271       H  0.37296621  0.00463770  0.28687050     0.13700
H1272       H  0.29363413  0.88831135  0.23673967     0.13500
C1273       C  0.17239960  0.98252497  0.27765578     0.85300
C1274       C  0.13535156  0.93356369  0.27018947    -0.54900
C1275       C  0.12692783  0.89967950  0.29170752     0.08200
C1276       C  0.16042772  0.92039650  0.32048252     0.19200
C1277       C  0.15584879  0.98924261  0.30908249    -0.55700
C1278       C  0.15017302  0.95760590  0.33253291     0.08300
C1279       C  0.21567551  0.98443991  0.28819055    -0.55200
C1280       C  0.21048183  0.94788551  0.30506521     0.08900
H1281       H  0.11165139  0.92920969  0.25117930     0.13400
H1282       H  0.15550860  0.89512221  0.33929367    -0.00900
H1283       H  0.14405380  0.51547452  0.31258745     0.13700
H1284       H  0.24845897  0.01121441  0.27846739     0.13500
C1285       C  0.31913196  0.79949384  0.27976507     0.85300
C1286       C  0.31008923  0.83701801  0.27228175    -0.54900
C1287       C  0.28165903  0.84175795  0.29235987     0.08200
C1288       C  0.26416496  0.80574560  0.31973747     0.19200
C1289       C  0.33876429  0.81046195  0.31350362    -0.55700
C1290       C  0.31071971  0.81386218  0.33510888     0.08300
C1291       C  0.27277385  0.75615874  0.28503019    -0.55200
C1292       C  0.24064517  0.75900281  0.30169872     0.08900
H1293       H  0.33060316  0.86162105  0.25384190     0.13400
H1294       H  0.24163294  0.80834836  0.33703541    -0.00900
H1295       H  0.37231656  0.81668385  0.31966205     0.13700
H1296       H  0.26519245  0.72484948  0.27422719     0.13500
C1297       C  0.98102256  0.65152690  0.27722073     0.85300
C1298       C  0.03087266  0.67937709  0.26557783    -0.54900
C1299       C  0.06455790  0.69987949  0.28839952     0.08200
C1300       C  0.04282104  0.70356346  0.31943527     0.19200
C1301       C  0.48052696  0.62503543  0.30769458    -0.55700
C1302       C  0.01104644  0.65214256  0.33018338     0.08300
C1303       C  0.97269070  0.68609329  0.29154732    -0.55200
C1304       C  0.00942613  0.72026253  0.30817522     0.08900
H1305       H  0.03847875  0.68068710  0.24041971     0.13400
H1306       H  0.06833464  0.72550273  0.33784826    -0.00900
H1307       H  0.45564873  0.58893258  0.31078139     0.13700
H1308       H  0.94399114  0.68833791  0.28312330     0.13500
C1309       C  0.00978733  0.81576920  0.25819803     0.85300
C1310       C  0.49012591  0.82420585  0.28657150    -0.54900
C1311       C  0.01193892  0.82809202  0.31609375     0.08200
C1312       C  0.04926249  0.81622167  0.31275969     0.19200
C1313       C  0.06130395  0.84652049  0.25839408    -0.55700
C1314       C  0.08336111  0.85228999  0.28713155     0.08300
C1315       C  0.00393917  0.77101981  0.26696614    -0.55200
C1316       C  0.02245423  0.76816547  0.29597479     0.08900
H1317       H  0.46040234  0.82713577  0.28511496     0.13400
H1318       H  0.06599797  0.81633780  0.33580063    -0.00900
H1319       H  0.07904083  0.86363332  0.23633905     0.13700
H1320       H  0.49176678  0.74299685  0.24897743     0.13500
C1321       C  0.14056159  0.65736330  0.25884585     0.85300
C1322       C  0.13446858  0.63109083  0.29032599    -0.54900
C1323       C  0.13596814  0.65398728  0.31725686     0.08200
C1324       C  0.14457679  0.70209197  0.31004525     0.19200
C1325       C  0.10432404  0.66841301  0.25976254    -0.55700
C1326       C  0.10457068  0.69246399  0.28557699     0.08300
C1327       C  0.18446282  0.70336128  0.26240276    -0.55200
C1328       C  0.19051277  0.72624515  0.29043460     0.08900
H1329       H  0.13035784  0.59798863  0.29133523     0.13400
H1330       H  0.14600435  0.72059242  0.33180489    -0.00900
H1331       H  0.07918786  0.65502590  0.24074375     0.13700
H1332       H  0.21034488  0.71546992  0.24384516     0.13500
C1333       C  0.84187173  0.31796268  0.94461503     0.85300
C1334       C  0.80535739  0.26923955  0.93591079    -0.54900
C1335       C  0.79636937  0.23483231  0.95741766     0.08200
C1336       C  0.82918605  0.25437822  0.98643420     0.19200
C1337       C  0.82532111  0.32349951  0.97653090    -0.55700
C1338       C  0.81929110  0.29110413  0.99927951     0.08300
C1339       C  0.88493887  0.31889837  0.95455782    -0.55200
C1340       C  0.87889409  0.28183689  0.97120268     0.08900
H1341       H  0.78365547  0.26491247  0.91559728     0.13400
H1342       H  0.82403248  0.22844275  0.00475359    -0.00900
H1343       H  0.81905035  0.35024409  0.98096446     0.13700
H1344       H  0.91804785  0.34502081  0.94493407     0.13500
C1345       C  0.68060480  0.14919569  0.92378352     0.85300
C1346       C  0.67597246  0.10495819  0.93237385    -0.54900
C1347       C  0.69404937  0.10238963  0.96153788     0.08200
C1348       C  0.72014738  0.15037800  0.97833997     0.19200
C1349       C  0.66192472  0.16116538  0.95285064    -0.55700
C1350       C  0.68196818  0.16091295  0.98169764     0.08300
C1351       C  0.73192867  0.18113158  0.92408140    -0.55200
C1352       C  0.75385459  0.18704248  0.95271793     0.08900
H1353       H  0.65916463  0.07739762  0.91542479     0.13400
H1354       H  0.73696959  0.15075068  0.00140518    -0.00900
H1355       H  0.63336796  0.16591376  0.95108326     0.13700
H1356       H  0.74960524  0.19878185  0.90216450     0.13500
C1357       C  0.65130894  0.98493937  0.94433860     0.85300
C1358       C  0.70096129  0.01263915  0.93233993    -0.54900
C1359       C  0.73484370  0.03403038  0.95487025     0.08200
C1360       C  0.71353850  0.03831849  0.98586026     0.19200
C1361       C  0.64769897  0.45700752  0.97411849    -0.55700
C1362       C  0.67880974  0.48410107  0.99715144     0.08300
C1363       C  0.64312762  0.02009979  0.95770963    -0.55200
C1364       C  0.68006002  0.05456946  0.97425676     0.08900
H1365       H  0.70825856  0.01365470  0.90718180     0.13400
H1366       H  0.73925082  0.06081940  0.00398007    -0.00900
H1367       H  0.62274415  0.42099784  0.97762396     0.13700
H1368       H  0.61479805  0.02250991  0.94863297     0.13500
C1369       C  0.81036439  0.49050391  0.92498922     0.85300
C1370       C  0.80239223  0.46227617  0.95583836    -0.54900
C1371       C  0.80210539  0.48339355  0.98318288     0.08200
C1372       C  0.81262511  0.03471867  0.97815377     0.19200
C1373       C  0.77634967  0.00431236  0.92625986    -0.55700
C1374       C  0.77485148  0.02685864  0.95241525     0.08300
C1375       C  0.85556363  0.03708632  0.93190870    -0.55200
C1376       C  0.85967026  0.05905214  0.96011308     0.08900
H1377       H  0.79900929  0.42949746  0.95618805     0.13400
H1378       H  0.81283302  0.05263045  0.99989254    -0.00900
H1379       H  0.75356885  0.99363332  0.90586278     0.13700
H1380       H  0.88287675  0.04915592  0.91451248     0.13500
C1381       C  0.98418319  0.13103300  0.94820340     0.85300
C1382       C  0.97230786  0.16633168  0.93958021    -0.54900
C1383       C  0.94449123  0.17165164  0.95958704     0.08200
C1384       C  0.93138617  0.13925580  0.98865494     0.19200
C1385       C  0.00806550  0.14829767  0.98031029    -0.55700
C1386       C  0.98042317  0.15202759  0.00239119     0.08300
C1387       C  0.94092821  0.08700685  0.95823815    -0.55200
C1388       C  0.90853617  0.09060438  0.97361781     0.08900
H1389       H  0.99283915  0.19081219  0.92093620     0.13400
H1390       H  0.90968925  0.14241357  0.00639630    -0.00900
H1391       H  0.54047207  0.15465162  0.98247845     0.13700
H1392       H  0.93404303  0.05510009  0.94882244     0.13500
C1393       C  0.97311376  0.28227825  0.92354952     0.85300
C1394       C  0.93071645  0.28298465  0.92948536    -0.54900
C1395       C  0.90899205  0.26488872  0.95856219     0.08200
C1396       C  0.93181532  0.24174355  0.97731572     0.19200
C1397       C  0.00383184  0.30247925  0.95380793    -0.55700
C1398       C  0.98185735  0.28173982  0.98206931     0.08300
C1399       C  0.95340761  0.23219024  0.92439966    -0.55200
C1400       C  0.93659500  0.21028824  0.95305071     0.08900
H1401       H  0.92001324  0.29875966  0.91167590     0.13400
H1402       H  0.91388724  0.22403664  0.99989910    -0.00900
H1403       H  0.53247119  0.33470534  0.94699106     0.13700
H1404       H  0.95441718  0.21540448  0.90309029     0.13500
C1405       C  0.80284036  0.30284372  0.08934231     0.85300
C1406       C  0.75170973  0.26975427  0.08911770    -0.54900
C1407       C  0.72930367  0.26392759  0.06065385     0.08200
C1408       C  0.76233993  0.30096833  0.03504276     0.19200
C1409       C  0.82186459  0.29162173  0.06014613    -0.55700
C1410       C  0.80106826  0.29125509  0.03150632     0.08300
C1411       C  0.80615844  0.34658160  0.08091689    -0.55200
C1412       C  0.78778020  0.34892635  0.05182880     0.08900
H1413       H  0.73464803  0.25179482  0.11107198     0.13400
H1414       H  0.74517452  0.30017177  0.01204335    -0.00900
H1415       H  0.85082183  0.28747574  0.06166917     0.13700
H1416       H  0.82261998  0.37415841  0.09787106     0.13500
C1417       C  0.51014573  0.17233929  0.08945651     0.85300
C1418       C  0.53057882  0.22260845  0.08780166    -0.54900
C1419       C  0.54577228  0.24306424  0.05844942     0.08200
C1420       C  0.54960913  0.21039312  0.03474223     0.19200
C1421       C  0.97817695  0.14930783  0.06290621    -0.55700
C1422       C  0.49914381  0.17075553  0.03106956     0.08300
C1423       C  0.55193699  0.17071658  0.08320851    -0.55200
C1424       C  0.57294868  0.18770442  0.05376991     0.08900
H1425       H  0.52977609  0.24024856  0.10869117     0.13400
H1426       H  0.56679036  0.22702186  0.01171873    -0.00900
H1427       H  0.94427819  0.11851306  0.06370129     0.13700
H1428       H  0.56290082  0.15534684  0.10116477     0.13500
C1429       C  0.49582787  0.32049409  0.06377357     0.85300
C1430       C  0.97088651  0.30304488  0.03594532    -0.54900
C1431       C  0.49957841  0.30190305  0.00907447     0.08200
C1432       C  0.54837581  0.31303993  0.02262407     0.19200
C1433       C  0.50642117  0.28390309  0.07115006    -0.55700
C1434       C  0.53484689  0.27956138  0.05111531     0.08300
C1435       C  0.53994693  0.36452635  0.05486113    -0.55200
C1436       C  0.57207561  0.36095373  0.03891048     0.08900
H1437       H  0.93610277  0.29356134  0.03019658     0.13400
H1438       H  0.56992436  0.31019082  0.00457137    -0.00900
H1439       H  0.48606955  0.25890648  0.08962301     0.13700
H1440       H  0.54751725  0.39603220  0.06548290     0.13500
C1441       C  0.63942176  0.13353835  0.06852844     0.85300
C1442       C  0.65603281  0.12786119  0.03656901    -0.54900
C1443       C  0.66288968  0.16063692  0.01383762     0.08200
C1444       C  0.65338416  0.19765234  0.02670970     0.19200
C1445       C  0.67632625  0.18203919  0.07736860    -0.55700
C1446       C  0.68602138  0.21666303  0.05591704     0.08300
C1447       C  0.59679432  0.13343597  0.05847418    -0.55200
C1448       C  0.60334197  0.17060377  0.04163518     0.08900
H1449       H  0.66199376  0.10090000  0.03215702     0.13400
H1450       H  0.65917092  0.22387925  0.00845261    -0.00900
H1451       H  0.69761903  0.18593827  0.09782039     0.13700
H1452       H  0.56353831  0.10775028  0.06815011     0.13500
C1453       C  0.83144151  0.46674543  0.06877189     0.85300
C1454       C  0.83903325  0.43117498  0.05535547    -0.54900
C1455       C  0.80193917  0.39683409  0.03893242     0.08200
C1456       C  0.76903982  0.41377428  0.02712992     0.19200
C1457       C  0.83189860  0.49259665  0.03884919    -0.55700
C1458       C  0.80118084  0.46487757  0.01584594     0.08300
C1459       C  0.78168736  0.43994826  0.08047319    -0.55200
C1460       C  0.74771193  0.41832915  0.05802459     0.08900
H1461       H  0.86724631  0.42849939  0.06435573     0.13400
H1462       H  0.74335826  0.39158200  0.00888701    -0.00900
H1463       H  0.85467931  0.03212695  0.03834904     0.13700
H1464       H  0.77457322  0.43908635  0.10559629     0.13500
C1465       C  0.66816210  0.45618389  0.08790443     0.85300
C1466       C  0.70374152  0.44421725  0.08793373    -0.54900
C1467       C  0.70638227  0.42354915  0.06103760     0.08200
C1468       C  0.66853964  0.41625985  0.03535571     0.19200
C1469       C  0.67724557  0.48525728  0.05727167    -0.55700
C1470       C  0.67781357  0.46480548  0.02968767     0.08300
C1471       C  0.62471011  0.41084710  0.08202730    -0.55200
C1472       C  0.62100037  0.39057256  0.05310297     0.08900
H1473       H  0.72561406  0.45355911  0.10875801     0.13400
H1474       H  0.66891011  0.39959887  0.01308166    -0.00900
H1475       H  0.68589025  0.02468290  0.05626428     0.13700
H1476       H  0.59717971  0.39762183  0.09939094     0.13500
In1477     In  0.84587632  0.33835423  0.84866354     1.36900
C1478       C  0.92389933  0.34781498  0.84143567     0.76400
O1479       O  0.83719138  0.29209211  0.81194582    -0.62100
O1480       O  0.84765002  0.35605929  0.79467585    -0.53000
C1481       C  0.76180311  0.27173626  0.84607285     0.69100
O1482       O  0.79476358  0.26753254  0.85495801    -0.47800
C1483       C  0.85012072  0.34622730  0.91347613     0.73800
O1484       O  0.88853556  0.31192289  0.85241080    -0.59700
O1485       O  0.81900705  0.34725027  0.89754375    -0.49800
O1486       O  0.92116476  0.38285169  0.83708055    -0.56100
C1487       C  0.84167429  0.31722672  0.78797180     0.83900
O1488       O  0.77089342  0.31216824  0.84206092    -0.58000
O1489       O  0.88317782  0.35468819  0.89607305    -0.61300
In1490     In  0.80480938  0.44515199  0.83246626     1.36900
C1491       C  0.72405684  0.43029784  0.84099821     0.76400
O1492       O  0.79235806  0.46929087  0.78894099    -0.62100
O1493       O  0.80794407  0.41878694  0.78113625    -0.53000
C1494       C  0.89384727  0.00437567  0.83532582     0.69100
O1495       O  0.86301872  0.01118119  0.82604526    -0.47800
C1496       C  0.81080966  0.47136434  0.89256793     0.73800
O1497       O  0.75912027  0.46758712  0.83236928    -0.59700
O1498       O  0.80309510  0.43177338  0.88704277    -0.49800
O1499       O  0.72819843  0.39586388  0.84260468    -0.56100
C1500       C  0.80132321  0.44878087  0.76873725     0.83900
O1501       O  0.87876502  0.46300622  0.83964560    -0.58000
O1502       O  0.81733595  0.49584728  0.86779353    -0.61300
In1503     In  0.64734359  0.15155635  0.82908640     1.36900
C1504       C  0.63023540  0.06996349  0.83185590     0.76400
O1505       O  0.68445106  0.14418111  0.86764125    -0.62100
O1506       O  0.62911257  0.15265116  0.88146147    -0.53000
C1507       C  0.71870162  0.23091726  0.83736709     0.69100
O1508       O  0.72009956  0.19781684  0.82646937    -0.47800
C1509       C  0.64091658  0.15726257  0.76501285     0.73800
O1510       O  0.66909540  0.10434305  0.82388676    -0.59700
O1511       O  0.60951603  0.12326852  0.78041942    -0.49800
O1512       O  0.59751665  0.07655751  0.83498193    -0.56100
C1513       C  0.66274657  0.14832015  0.89012804     0.83900
O1514       O  0.67899750  0.22483976  0.84093794    -0.58000
O1515       O  0.66343957  0.19128833  0.78249263    -0.61300
In1516     In  0.62709357  0.45790535  0.85045619     1.36900
C1517       C  0.62704802  0.02772213  0.84050404     0.76400
O1518       O  0.68015170  0.49970850  0.81598295    -0.62100
O1519       O  0.61460444  0.44590238  0.79684558    -0.53000
C1520       C  0.68467638  0.43281253  0.84944922     0.69100
O1521       O  0.69588785  0.96839175  0.86075505    -0.47800
C1522       C  0.61951706  0.45831510  0.91499987     0.73800
O1523       O  0.66302234  0.02970776  0.85112204    -0.59700
O1524       O  0.62245960  0.42796351  0.90143039    -0.49800
O1525       O  0.59046194  0.98812707  0.83791671    -0.56100
C1526       C  0.65562982  0.48010065  0.79134113     0.83900
O1527       O  0.64225486  0.40238043  0.84483098    -0.58000
O1528       O  0.60723711  0.47820965  0.89596824    -0.61300
In1529     In  0.00382430  0.12796372  0.85165214     1.36900
C1530       C  0.52187456  0.21506324  0.84866949     0.76400
O1531       O  0.96575450  0.10776829  0.89491150    -0.62100
O1532       O  0.53862708  0.15837647  0.90015600    -0.53000
C1533       C  0.93737793  0.04519304  0.84369609     0.69100
O1534       O  0.93393609  0.07731023  0.85328213    -0.47800
C1535       C  0.48993945  0.13741445  0.78885199     0.73800
O1536       O  0.98784762  0.17865122  0.85662724    -0.59700
O1537       O  0.52237337  0.13151386  0.79808427    -0.49800
O1538       O  0.55424759  0.20793021  0.84568437    -0.56100
C1539       C  0.50540395  0.12517169  0.91499612     0.83900
O1540       O  0.97818176  0.05369801  0.84060276    -0.58000
O1541       O  0.96553861  0.13904010  0.81427096    -0.61300
In1542     In  0.02222469  0.32213842  0.83181535     1.36900
C1543       C  0.96261289  0.34435516  0.83338017     0.76400
O1544       O  0.96986075  0.28045542  0.86642746    -0.62100
O1545       O  0.52875984  0.33607580  0.88168004    -0.53000
C1546       C  0.52514376  0.25730870  0.83996788     0.69100
O1547       O  0.99554871  0.25159777  0.83021749    -0.47800
C1548       C  0.52743615  0.32498235  0.76390365     0.73800
O1549       O  0.95359898  0.30519563  0.82603121    -0.59700
O1550       O  0.52270385  0.35436293  0.77709300    -0.49800
O1551       O  0.00498286  0.37564148  0.83673172    -0.56100
C1552       C  0.48747843  0.30201039  0.88643005     0.83900
O1553       O  0.56120900  0.29726382  0.84319658    -0.58000
O1554       O  0.03881801  0.30158593  0.78541696    -0.61300
C1555       C  0.84346705  0.48121622  0.58881829     0.85300
C1556       C  0.82425898  0.49175433  0.61825279    -0.54900
C1557       C  0.84547393  0.49254421  0.64673506     0.08200
C1558       C  0.88485117  0.48384032  0.64294075     0.19200
C1559       C  0.89573931  0.01335920  0.59174416    -0.55700
C1560       C  0.91878094  0.01947505  0.62000526     0.08300
C1561       C  0.84121735  0.43780074  0.59705920    -0.55200
C1562       C  0.86005537  0.43591085  0.62620974     0.08900
H1563       H  0.79494604  0.49537034  0.61696151     0.13400
H1564       H  0.90236938  0.48503111  0.66585465    -0.00900
H1565       H  0.91236006  0.03060378  0.56950031     0.13700
H1566       H  0.82458003  0.40996945  0.58031741     0.13500
C1567       C  0.51051613  0.15057861  0.61010150     0.85300
C1568       C  0.97208652  0.10109747  0.60285714    -0.54900
C1569       C  0.96207626  0.06672779  0.62456605     0.08200
C1570       C  0.99383827  0.08627032  0.65415501     0.19200
C1571       C  0.49271813  0.15571523  0.64170224    -0.55700
C1572       C  0.98309883  0.12270165  0.66656408     0.08300
C1573       C  0.55362166  0.15210380  0.62077198    -0.55200
C1574       C  0.54758077  0.11511010  0.63760718     0.08900
H1575       H  0.95187908  0.09666995  0.58168553     0.13400
H1576       H  0.98820225  0.06026450  0.67256403    -0.00900
H1577       H  0.48612192  0.18230810  0.64586807     0.13700
H1578       H  0.58677407  0.17847146  0.61135749     0.13500
C1579       C  0.64258375  0.11547375  0.59031012     0.85300
C1580       C  0.60067786  0.11692983  0.59652604    -0.54900
C1581       C  0.57894548  0.09905042  0.62563728     0.08200
C1582       C  0.60176219  0.07571935  0.64443150     0.21000
C1583       C  0.67386379  0.13575844  0.62023073    -0.55700
C1584       C  0.65231977  0.11550731  0.64867987     0.08300
C1585       C  0.62231996  0.06521870  0.59146913    -0.55200
C1586       C  0.60554604  0.04345465  0.62024169     0.08900
H1587       H  0.58994721  0.13254038  0.57858627     0.13400
H1588       H  0.58427717  0.05860962  0.66726839    -0.00900
H1589       H  0.70857431  0.16533362  0.61913868     0.13700
H1590       H  0.62283782  0.04812794  0.57018258     0.13500
C1591       C  0.64986101  0.46327119  0.61372528     0.85300
C1592       C  0.63951759  0.99821567  0.60622415    -0.54900
C1593       C  0.61163938  0.00329731  0.62630176     0.08200
C1594       C  0.59708797  0.47053381  0.65474997     0.19200
C1595       C  0.67383486  0.47977169  0.64585331    -0.55700
C1596       C  0.64639519  0.48322969  0.66826358     0.08300
C1597       C  0.60686338  0.41909136  0.62343022    -0.55200
C1598       C  0.57433350  0.42200008  0.63902809     0.08900
H1599       H  0.66158505  0.02393691  0.58869729     0.13400
H1600       H  0.57538270  0.47321690  0.67275777    -0.00900
H1601       H  0.70856758  0.48834551  0.65059170     0.13700
H1602       H  0.60055552  0.38739469  0.61401985     0.13500
C1603       C  0.97572107  0.32349770  0.59320667     0.85300
C1604       C  0.96903917  0.29663565  0.62451444    -0.54900
C1605       C  0.96948425  0.31878383  0.65154694     0.08200
C1606       C  0.97702534  0.36649081  0.64458354     0.19200
C1607       C  0.93900715  0.33383030  0.59347038    -0.55700
C1608       C  0.93795754  0.35696534  0.61932855     0.08300
C1609       C  0.52121332  0.36709011  0.59742510    -0.55200
C1610       C  0.52544583  0.38903883  0.62578055     0.08900
H1611       H  0.96599111  0.26401195  0.62537620     0.13400
H1612       H  0.97725221  0.38426414  0.66641215    -0.00900
H1613       H  0.91500858  0.32140236  0.57367198     0.13700
H1614       H  0.54852449  0.37896237  0.58004805     0.13500
C1615       C  0.81434517  0.31751235  0.61095797     0.85300
C1616       C  0.86402059  0.34318012  0.59899445    -0.54900
C1617       C  0.89820119  0.36455447  0.62138732     0.08200
C1618       C  0.87777918  0.37056618  0.65202363     0.19200
C1619       C  0.81386034  0.29179957  0.64123491    -0.55700
C1620       C  0.84540346  0.31975397  0.66393003     0.08300
C1621       C  0.80790841  0.35388815  0.62422020    -0.55200
C1622       C  0.84553488  0.38822767  0.63997622     0.08900
H1623       H  0.87101291  0.34284234  0.57399175     0.13400
H1624       H  0.90402753  0.39299788  0.66989317    -0.00900
H1625       H  0.78921607  0.25583061  0.64524047     0.13700
H1626       H  0.77994676  0.35708055  0.61537941     0.13500
C1627       C  0.96725780  0.13608488  0.75693758     0.85300
C1628       C  0.91562131  0.10723938  0.75681024    -0.54900
C1629       C  0.89422036  0.10140005  0.72785392     0.08200
C1630       C  0.92871471  0.13688755  0.70229436     0.19200
C1631       C  0.98410043  0.12215604  0.72770449    -0.55700
C1632       C  0.96480254  0.12362624  0.69883251     0.08300
C1633       C  0.97488097  0.18154276  0.74812379    -0.55200
C1634       C  0.95656999  0.18479679  0.71906684     0.08900
H1635       H  0.89722157  0.08995344  0.77868010     0.13400
H1636       H  0.91209024  0.13737962  0.67935366    -0.00900
H1637       H  0.51961107  0.12106694  0.72681269     0.13700
H1638       H  0.99308524  0.20899769  0.76499609     0.13500
C1639       C  0.00017884  0.30168224  0.73719491     0.85300
C1640       C  0.00744864  0.26645097  0.72291106    -0.54900
C1641       C  0.97024006  0.23261554  0.70662176     0.08200
C1642       C  0.93737099  0.24989794  0.69542471     0.19200
C1643       C  0.00069606  0.32840297  0.70747487    -0.55700
C1644       C  0.96948967  0.30098595  0.68438603     0.08300
C1645       C  0.95029712  0.27501649  0.74896898    -0.55200
C1646       C  0.91634708  0.25462462  0.72631865     0.08900
H1647       H  0.03582606  0.26354670  0.73115611     0.13400
H1648       H  0.91144115  0.22795243  0.67722362    -0.00900
H1649       H  0.52208362  0.36073918  0.70166042     0.13700
H1650       H  0.94288082  0.27441119  0.77401629     0.13500
C1651       C  0.84080027  0.29811437  0.75521901     0.85300
C1652       C  0.87688448  0.28674880  0.75453513    -0.54900
C1653       C  0.87693307  0.26296754  0.72872325     0.08200
C1654       C  0.83751405  0.25394419  0.70389859     0.19200
C1655       C  0.84754725  0.32492700  0.72390367    -0.55700
C1656       C  0.84603994  0.30221471  0.69684642     0.08300
C1657       C  0.79669788  0.25232810  0.75105956    -0.55200
C1658       C  0.79137647  0.22938466  0.72315623     0.08900
H1659       H  0.90157209  0.29935061  0.77393627     0.13400
H1660       H  0.83639961  0.23577096  0.68204243    -0.00900
H1661       H  0.85132102  0.35787878  0.72304422     0.13700
H1662       H  0.77037274  0.24015315  0.76929512     0.13500
C1663       C  0.80881712  0.46898945  0.73461755     0.85300
C1664       C  0.82251670  0.46109628  0.70225177    -0.54900
C1665       C  0.82768073  0.49304528  0.67906490     0.08200
C1666       C  0.82003751  0.03191391  0.69414619     0.19200
C1667       C  0.84612072  0.01948963  0.74413516    -0.55700
C1668       C  0.85312695  0.05303406  0.72281015     0.08300
C1669       C  0.76564195  0.46799096  0.72561758    -0.55200
C1670       C  0.77058092  0.00411160  0.70965214     0.08900
H1671       H  0.82841702  0.43408062  0.69792653     0.13400
H1672       H  0.82434976  0.05697755  0.67534362    -0.00900
H1673       H  0.87046496  0.02465202  0.76294470     0.13700
H1674       H  0.73313301  0.44155159  0.73591434     0.13500
C1675       C  0.67644697  0.99965715  0.75907253     0.85300
C1676       C  0.69225048  0.04883541  0.75826636    -0.54900
C1677       C  0.70879257  0.07163198  0.72969674     0.08200
C1678       C  0.71488717  0.04143707  0.70481001     0.19200
C1679       C  0.64494018  0.48048136  0.72875321    -0.55700
C1680       C  0.66551700  0.99951533  0.70074580     0.08300
C1681       C  0.72062267  0.00286819  0.75242991    -0.55200
C1682       C  0.74067429  0.02089507  0.72296776     0.08900
H1683       H  0.69030700  0.06430318  0.77988527     0.13400
H1684       H  0.73125710  0.05936080  0.68189488    -0.00900
H1685       H  0.61073134  0.45013229  0.72963627     0.13700
H1686       H  0.73112639  0.48704604  0.76943853     0.13500
C1687       C  0.66432883  0.15305971  0.73532565     0.85300
C1688       C  0.64312796  0.13829038  0.70235211    -0.54900
C1689       C  0.67132977  0.13494053  0.68092547     0.08200
C1690       C  0.71934797  0.14661718  0.69578717     0.19200
C1691       C  0.67636166  0.11812098  0.74449003    -0.55700
C1692       C  0.70400549  0.11253740  0.72432019     0.08300
C1693       C  0.70897611  0.19731356  0.72805374    -0.55200
C1694       C  0.74166816  0.19484546  0.71189341     0.08900
H1695       H  0.60882602  0.13025808  0.69652712     0.13400
H1696       H  0.74180694  0.14389024  0.67849436    -0.00900
H1697       H  0.65674163  0.09441712  0.76353659     0.13700
H1698       H  0.71541762  0.22883622  0.73776889     0.13500
In1699     In  0.80802710  0.48610662  0.49438846     1.36900
C1700       C  0.78806066  0.40385626  0.49642436     0.76400
O1701       O  0.84573086  0.47697012  0.53219288    -0.62100
O1702       O  0.79123452  0.48568669  0.54750424    -0.53000
C1703       C  0.88436829  0.06270489  0.50624555     0.69100
O1704       O  0.88304140  0.02780492  0.49612541    -0.47800
C1705       C  0.80330032  0.49240210  0.42995703     0.73800
O1706       O  0.82739889  0.43772253  0.48871923    -0.59700
O1707       O  0.77156575  0.45850880  0.44522678    -0.49800
O1708       O  0.75592879  0.41136635  0.49958491    -0.56100
C1709       C  0.82464367  0.48059711  0.55537302     0.83900
O1710       O  0.84597996  0.05969996  0.50921662    -0.58000
O1711       O  0.82564281  0.52636051  0.44754563    -0.61300
In1712     In  0.66962509  0.46061921  0.51711274     1.36900
C1713       C  0.69803783  0.04457519  0.51739895     0.76400
O1714       O  0.63123012  0.44283937  0.55993970    -0.62100
O1715       O  0.70171733  0.46713616  0.56892734    -0.53000
C1716       C  0.60090266  0.37869351  0.50843577     0.69100
O1717       O  0.59855289  0.41225541  0.51588003    -0.47800
C1718       C  0.65113313  0.46800490  0.45592470     0.73800
O1719       O  0.65810332  0.01222199  0.52449855    -0.59700
O1720       O  0.68292900  0.46057734  0.46309131    -0.49800
O1721       O  0.72782437  0.03412093  0.51304259    -0.56100
C1722       C  0.66289307  0.45598425  0.58053692     0.83900
O1723       O  0.64121611  0.38533567  0.50780804    -0.58000
O1724       O  0.63246842  0.47350931  0.47977422    -0.61300
In1725     In  0.69008801  0.15292208  0.49768206     1.36900
C1726       C  0.62969245  0.17472567  0.49847006     0.76400
O1727       O  0.63821950  0.11306117  0.53321391    -0.62100
O1728       O  0.70394710  0.16760765  0.55113278    -0.53000
C1729       C  0.70207952  0.08740605  0.50926901     0.69100
O1730       O  0.66545653  0.08349780  0.49858931    -0.47800
C1731       C  0.69152698  0.14925701  0.43305243     0.73800
O1732       O  0.62098988  0.13538505  0.49243329    -0.59700
O1733       O  0.70278579  0.18632982  0.44625808    -0.49800
O1734       O  0.67201218  0.20632967  0.50085923    -0.56100
C1735       C  0.66298914  0.13400201  0.55738380     0.83900
O1736       O  0.73729729  0.12801287  0.51211330    -0.58000
O1737       O  0.68983067  0.12054385  0.45254522    -0.61300
In1738     In  0.01259424  0.16965797  0.51659507     1.36900
C1739       C  0.59088507  0.17824529  0.50627506     0.76400
O1740       O  0.00371356  0.12486140  0.47896605    -0.62100
O1741       O  0.51584610  0.19095855  0.46061744    -0.53000
C1742       C  0.92860259  0.10271538  0.51410647     0.69100
O1743       O  0.96166473  0.09795973  0.52174009    -0.47800
C1744       C  0.51878528  0.17864227  0.57884022     0.73800
O1745       O  0.55542628  0.14257133  0.51741910    -0.59700
O1746       O  0.48774997  0.18005328  0.56304820    -0.49800
O1747       O  0.58828479  0.21330827  0.50179235    -0.56100
C1748       C  0.00886270  0.15105137  0.45554485     0.83900
O1749       O  0.93794866  0.14331345  0.51100715    -0.58000
O1750       O  0.05024985  0.18834272  0.56417570    -0.61300
In1751     In  0.79067448  0.29245368  0.51661917     1.36900
C1752       C  0.78455316  0.36154211  0.50527865     0.76400
O1753       O  0.84215248  0.33273750  0.48098100    -0.62100
O1754       O  0.77580629  0.27878768  0.46314626    -0.53000
C1755       C  0.84872696  0.26793704  0.51596617     0.69100
O1756       O  0.85780891  0.30696695  0.52371016    -0.47800
C1757       C  0.78480959  0.29333148  0.58149045     0.73800
O1758       O  0.82053584  0.36415164  0.51643750    -0.59700
O1759       O  0.78553701  0.26183470  0.56771193    -0.49800
O1760       O  0.74839666  0.32162294  0.50242060    -0.56100
C1761       C  0.81664089  0.31271001  0.45681016     0.83900
O1762       O  0.80640804  0.23738329  0.51130231    -0.58000
O1763       O  0.77432928  0.31484449  0.56251149    -0.61300
In1764     In  0.96851885  0.27868204  0.50051671     1.36900
C1765       C  0.88815645  0.26498752  0.50874141     0.76400
O1766       O  0.95346162  0.30190260  0.45734115    -0.62100
O1767       O  0.97251043  0.25418535  0.44872975    -0.53000
C1768       C  0.55706041  0.33777336  0.50040115     0.69100
O1769       O  0.52563415  0.34397250  0.49111948    -0.47800
C1770       C  0.97545907  0.30395926  0.56083589     0.73800
O1771       O  0.92382831  0.30219952  0.50082346    -0.59700
O1772       O  0.96729267  0.26424147  0.55506991    -0.49800
O1773       O  0.89164623  0.23014792  0.51038455    -0.56100
C1774       C  0.96395796  0.28309197  0.43680254     0.83900
O1775       O  0.54501280  0.29664063  0.50597522    -0.58000
O1776       O  0.98157421  0.32854179  0.53622550    -0.61300
In1777     In  0.84980817  0.49367146  0.16241931     1.36900
C1778       C  0.85510709  0.42448117  0.17448040     0.76400
O1779       O  0.86969328  0.47098386  0.11822266    -0.62100
O1780       O  0.84811063  0.02058833  0.11616729    -0.53000
C1781       C  0.79251385  0.51894772  0.16130177     0.69100
O1782       O  0.78381672  0.48046306  0.15255311    -0.47800
C1783       C  0.82573624  0.97098994  0.22524392     0.73800
O1784       O  0.81894768  0.42172818  0.16347628    -0.59700
O1785       O  0.86606612  0.00586583  0.21891562    -0.49800
O1786       O  0.89128232  0.46440629  0.17728318    -0.56100
C1787       C  0.85843392  0.99626080  0.10131641     0.83900
O1788       O  0.83239207  0.04424338  0.17261449    -0.58000
O1789       O  0.79703103  0.45327072  0.19756661    -0.61300
In1790     In  0.67196611  0.50366984  0.17941618     1.36900
C1791       C  0.75276200  0.52061680  0.16974458     0.76400
O1792       O  0.66035399  0.45148587  0.14534736    -0.62100
O1793       O  0.67633334  0.02158499  0.12632203    -0.53000
C1794       C  0.58434051  0.44381042  0.17753754     0.69100
O1795       O  0.61457049  0.43672862  0.18811580    -0.47800
C1796       C  0.67543705  0.01358999  0.24578980     0.73800
O1797       O  0.71896688  0.48327423  0.18002636    -0.59700
O1798       O  0.64277552  0.01120843  0.22967291    -0.49800
O1799       O  0.74764585  0.05037466  0.17030454    -0.56100
C1800       C  0.67047068  0.98252826  0.12065235     0.83900
O1801       O  0.59792226  0.48516147  0.17122769    -0.58000
O1802       O  0.69620155  0.49077838  0.22392125    -0.61300
In1803     In  0.97223415  0.31718889  0.16298947     1.36900
C1804       C  0.95269475  0.23510767  0.16503021     0.76400
O1805       O  0.00950069  0.30861026  0.20137242    -0.62100
O1806       O  0.95522363  0.31804132  0.21598847    -0.53000
C1807       C  0.54044192  0.40338662  0.16868429     0.69100
O1808       O  0.54275090  0.37014550  0.16029395    -0.47800
C1809       C  0.96812410  0.32294879  0.09834015     0.73800
O1810       O  0.48489855  0.26927542  0.15411077    -0.59700
O1811       O  0.93695518  0.28855402  0.11352632    -0.49800
O1812       O  0.92031474  0.24217879  0.16863793    -0.56100
C1813       C  0.98861792  0.31312961  0.22426758     0.83900
O1814       O  0.50007777  0.39650694  0.17006293    -0.58000
O1815       O  0.98943513  0.35699668  0.11597648    -0.61300
In1816     In  0.95928142  0.12618486  0.18483787     1.36900
C1817       C  0.51710255  0.10757114  0.17970157     0.76400
O1818       O  0.94197842  0.14857355  0.23040138    -0.62100
O1819       O  0.95529593  0.09706781  0.23616639    -0.53000
C1820       C  0.95021286  0.19325396  0.17357460     0.69100
O1821       O  0.47942503  0.19939460  0.18100468    -0.47800
C1822       C  0.98840522  0.14937281  0.12567488     0.73800
O1823       O  0.52636638  0.14690581  0.18660720    -0.59700
O1824       O  0.94755677  0.11482386  0.13104508    -0.49800
O1825       O  0.47462637  0.07646164  0.17663421    -0.56100
C1826       C  0.95330221  0.12804677  0.24960604     0.83900
O1827       O  0.91470300  0.15283331  0.17073882    -0.58000
O1828       O  0.01261181  0.16891387  0.15046647    -0.61300
In1829     In  0.63424658  0.11376947  0.16473028     1.36900
C1830       C  0.71825298  0.18171888  0.16779616     0.76400
O1831       O  0.64223541  0.15896336  0.20186363    -0.62100
O1832       O  0.63286517  0.09528395  0.21866889    -0.53000
C1833       C  0.55577672  0.10385487  0.17170481     0.69100
O1834       O  0.59088585  0.13939543  0.16011710    -0.47800
C1835       C  0.63069571  0.10517967  0.09982045     0.73800
O1836       O  0.68495295  0.18557941  0.15921956    -0.59700
O1837       O  0.66171974  0.10452455  0.11618270    -0.49800
O1838       O  0.70950560  0.14136291  0.17119474    -0.56100
C1839       C  0.63844422  0.13386858  0.22566840     0.83900
O1840       O  0.55891334  0.06919262  0.17686854    -0.58000
O1841       O  0.59729594  0.09650273  0.11695035    -0.61300
In1842     In  0.83516941  0.30109553  0.18433853     1.36900
C1843       C  0.85246442  0.38248993  0.18255455     0.76400
O1844       O  0.82220623  0.26188188  0.23108101    -0.62100
O1845       O  0.87298255  0.33104576  0.23260816    -0.53000
C1846       C  0.76175160  0.22246478  0.17638045     0.69100
O1847       O  0.76153991  0.25639761  0.18687544    -0.47800
C1848       C  0.82094229  0.30430442  0.12302886     0.73800
O1849       O  0.81382299  0.34806550  0.19082776    -0.59700
O1850       O  0.85424250  0.29964668  0.13206378    -0.49800
O1851       O  0.88500994  0.37595734  0.17816931    -0.56100
C1852       C  0.84287018  0.29655879  0.24826509     0.83900
O1853       O  0.80094473  0.22737339  0.17314748    -0.58000
O1854       O  0.79944177  0.30916547  0.14524832    -0.61300
C1855       C  0.82669386  0.48790580  0.40025574     0.85300
C1856       C  0.80522418  0.47334250  0.36727859    -0.54900
C1857       C  0.83289928  0.46945093  0.34572086     0.08200
C1858       C  0.88056974  0.47985220  0.36058400     0.19200
C1859       C  0.83769719  0.45222852  0.40939245    -0.55700
C1860       C  0.86490464  0.44598702  0.38922186     0.08300
C1861       C  0.87309844  0.03411985  0.39601879    -0.55200
C1862       C  0.90540002  0.03145199  0.37926599     0.08900
H1863       H  0.77113639  0.46594448  0.36147815     0.13400
H1864       H  0.90249814  0.47640166  0.34323173    -0.00900
H1865       H  0.81814284  0.42903470  0.42859061     0.13700
H1866       H  0.87984919  0.06557430  0.40605399     0.13500
C1867       C  0.63208740  0.46786609  0.42251913     0.85300
C1868       C  0.58100671  0.43531106  0.42239276    -0.54900
C1869       C  0.55881326  0.42940967  0.39374498     0.08200
C1870       C  0.59175259  0.46635230  0.36806812     0.19200
C1871       C  0.65092649  0.45672055  0.39303217    -0.55700
C1872       C  0.63047434  0.45676582  0.36434869     0.08300
C1873       C  0.63331144  0.01142946  0.41489575    -0.55200
C1874       C  0.61488421  0.01375881  0.38561171     0.08900
H1875       H  0.56384912  0.41703186  0.44430609     0.13400
H1876       H  0.57453735  0.46563675  0.34511046    -0.00900
H1877       H  0.67981122  0.45244826  0.39446317     0.13700
H1878       H  0.65004786  0.03902240  0.43173913     0.13500
C1879       C  0.66312272  0.13030071  0.40244949     0.85300
C1880       C  0.66911350  0.09468672  0.38724425    -0.54900
C1881       C  0.63095199  0.06146859  0.37150011     0.08200
C1882       C  0.59986884  0.08079926  0.36032236     0.19200
C1883       C  0.66500100  0.15841596  0.37318391    -0.55700
C1884       C  0.63356554  0.13199487  0.34977612     0.08300
C1885       C  0.61301416  0.10493206  0.41398165    -0.55200
C1886       C  0.57917929  0.08572848  0.39118050     0.08900
H1887       H  0.69655273  0.09023989  0.39549559     0.13400
H1888       H  0.57377142  0.05971560  0.34193519    -0.00900
H1889       H  0.69081673  0.19424743  0.36997626     0.13700
H1890       H  0.60535918  0.10424360  0.43907813     0.13500
C1891       C  0.00751290  0.13261004  0.42247880     0.85300
C1892       C  0.54244719  0.12055020  0.41908522    -0.54900
C1893       C  0.54072759  0.09532424  0.39368367     0.08200
C1894       C  0.00197059  0.08785564  0.37092656     0.19200
C1895       C  0.01659636  0.16051745  0.39135364    -0.55700
C1896       C  0.01394821  0.13739250  0.36417321     0.08300
C1897       C  0.96192251  0.08868253  0.41778980    -0.55200
C1898       C  0.95554804  0.06551121  0.38992843     0.08900
H1899       H  0.56812699  0.13372021  0.43788360     0.13400
H1900       H  0.99990540  0.06934256  0.34901076    -0.00900
H1901       H  0.52018841  0.19350120  0.38719148     0.13700
H1902       H  0.93577446  0.07760475  0.43604444     0.13500
C1903       C  0.97152961  0.30440359  0.40304826     0.85300
C1904       C  0.98698195  0.29694994  0.37132225    -0.54900
C1905       C  0.99206180  0.32829534  0.34773746     0.08200
C1906       C  0.98193574  0.36556648  0.35983886     0.19200
C1907       C  0.50840694  0.34729229  0.40973090    -0.55700
C1908       C  0.51653458  0.38178195  0.38877449     0.08300
C1909       C  0.92798171  0.30211214  0.39310350    -0.55200
C1910       C  0.93273084  0.33830952  0.37609374     0.08900
H1911       H  0.99363715  0.27030477  0.36763168     0.13400
H1912       H  0.98597118  0.39038962  0.34093132    -0.00900
H1913       H  0.53146513  0.35135586  0.42913338     0.13700
H1914       H  0.89552669  0.27558311  0.40341113     0.13500
C1915       C  0.83617062  0.33288440  0.42387610     0.85300
C1916       C  0.85232299  0.38213382  0.42320488    -0.54900
C1917       C  0.86984081  0.40527945  0.39494139     0.08200
C1918       C  0.87679628  0.37552163  0.37030529     0.19200
C1919       C  0.80601958  0.31182127  0.39347120    -0.55700
C1920       C  0.82747096  0.33393783  0.36531962     0.08300
C1921       C  0.88044770  0.33574194  0.41792959    -0.55200
C1922       C  0.90176191  0.35438705  0.38884502     0.08900
H1923       H  0.84995284  0.39741089  0.44476085     0.13400
H1924       H  0.89412491  0.39394004  0.34774612    -0.00900
H1925       H  0.77216661  0.28097809  0.39403709     0.13700
H1926       H  0.89276878  0.32164336  0.43589193     0.13500
C1927       C  0.80318543  0.45169668  0.25474751     0.85300
C1928       C  0.75858200  0.44784197  0.26129410    -0.54900
C1929       C  0.73827078  0.42943575  0.29065168     0.08200
C1930       C  0.76447228  0.40906613  0.30871500     0.19200
C1931       C  0.83402103  0.47317305  0.28480443    -0.55700
C1932       C  0.81375927  0.45103321  0.31316409     0.08300
C1933       C  0.78784405  0.40263300  0.25527522    -0.55200
C1934       C  0.77134675  0.37950551  0.28370701     0.08900
H1935       H  0.74558663  0.46174455  0.24376351     0.13400
H1936       H  0.74792447  0.39064274  0.33145136    -0.00900
H1937       H  0.86765674  0.50428662  0.28385755     0.13700
H1938       H  0.79053170  0.38753902  0.23366977     0.13500
C1939       C  0.67241350  0.48363270  0.27732708     0.85300
C1940       C  0.63454894  0.43530456  0.26928222    -0.54900
C1941       C  0.62575069  0.40066163  0.28991828     0.08200
C1942       C  0.65849309  0.41961521  0.31907513     0.19200
C1943       C  0.65567432  0.48965561  0.30913598    -0.55700
C1944       C  0.64907194  0.45689852  0.33204777     0.08300
C1945       C  0.71506453  0.48426330  0.28798324    -0.55200
C1946       C  0.70852923  0.44664570  0.30410779     0.08900
H1947       H  0.61045914  0.43195233  0.25087604     0.13400
H1948       H  0.65273069  0.39335500  0.33729414    -0.00900
H1949       H  0.64505866  0.01638968  0.31367995     0.13700
H1950       H  0.74814751  0.51027873  0.27817503     0.13500
C1951       C  0.81835343  0.30004405  0.27772129     0.85300
C1952       C  0.80642586  0.33521795  0.26905355    -0.54900
C1953       C  0.77784829  0.33966339  0.28910436     0.08200
C1954       C  0.76207394  0.30480284  0.31720353     0.19200
C1955       C  0.83857426  0.31369360  0.31113700    -0.55700
C1956       C  0.80963146  0.31597315  0.33251929     0.08300
C1957       C  0.77341775  0.25561543  0.28392018    -0.55200
C1958       C  0.74046653  0.25733687  0.30036792     0.08900
H1959       H  0.82640800  0.35972129  0.25049216     0.13400
H1960       H  0.73901797  0.30682133  0.33434874    -0.00900
H1961       H  0.87279646  0.32178848  0.31730851     0.13700
H1962       H  0.76737835  0.22445429  0.27386505     0.13500
C1963       C  0.48305586  0.15334066  0.27556949     0.85300
C1964       C  0.53315481  0.17991024  0.26409119    -0.54900
C1965       C  0.56680490  0.19986759  0.28690238     0.08200
C1966       C  0.54533110  0.20484290  0.31752280     0.19200
C1967       C  0.98373698  0.12734674  0.30833704    -0.55700
C1968       C  0.51278622  0.15357321  0.32854783     0.08300
C1969       C  0.47542413  0.18819441  0.28999188    -0.55200
C1970       C  0.51254769  0.22229672  0.30588930     0.08900
H1971       H  0.54099416  0.18063990  0.23900932     0.13400
H1972       H  0.57104869  0.22677820  0.33583333    -0.00900
H1973       H  0.95968476  0.09118782  0.31198533     0.13700
H1974       H  0.44679327  0.19075956  0.28181115     0.13500
C1975       C  0.50887367  0.31561789  0.25562568     0.85300
C1976       C  0.98890870  0.32624359  0.28702040    -0.54900
C1977       C  0.51074773  0.32608052  0.31391137     0.08200
C1978       C  0.54978203  0.31696306  0.30990235     0.19200
C1979       C  0.55992739  0.34870305  0.25590837    -0.55700
C1980       C  0.58231729  0.35408058  0.28452780     0.08300
C1981       C  0.50606414  0.27189752  0.26375973    -0.55200
C1982       C  0.52527473  0.26965938  0.29275366     0.08900
H1983       H  0.95982318  0.33020687  0.28555108     0.13400
H1984       H  0.56717959  0.31768376  0.33276378    -0.00900
H1985       H  0.57690798  0.36724307  0.23404319     0.13700
H1986       H  0.98791883  0.24319464  0.25002365     0.13500
C1987       C  0.64002043  0.15317960  0.25851031     0.85300
C1988       C  0.63303688  0.12676004  0.28999065    -0.54900
C1989       C  0.63511916  0.15020289  0.31683095     0.08200
C1990       C  0.64480100  0.19880914  0.30946927     0.19200
C1991       C  0.60457060  0.16544804  0.25925773    -0.55700
C1992       C  0.60543329  0.19021052  0.28477177     0.08300
C1993       C  0.68471636  0.19842989  0.26237067    -0.55200
C1994       C  0.69069536  0.22203290  0.29000197     0.08900
H1995       H  0.62814030  0.09332738  0.29110920     0.13400
H1996       H  0.64664170  0.21752358  0.33121550    -0.00900
H1997       H  0.57932236  0.15237600  0.24017532     0.13700
H1998       H  0.71066062  0.20991459  0.24392628     0.13500
C1999       C  0.84437061  0.81799367  0.94534638     0.85300
C2000       C  0.80860989  0.76906777  0.93621072    -0.54900
C2001       C  0.79822120  0.73464151  0.95807697     0.08200
C2002       C  0.82976771  0.75456016  0.98766409     0.19200
C2003       C  0.82554974  0.82331601  0.97628564    -0.55700
C2004       C  0.81867979  0.79110148  0.99954788     0.08300
C2005       C  0.88718715  0.81984469  0.95734578    -0.55200
C2006       C  0.88031800  0.78215741  0.97332887     0.08900
H2007       H  0.78835694  0.76498291  0.91511139     0.13400
H2008       H  0.82402471  0.72877110  0.00628645    -0.00900
H2009       H  0.81911176  0.85013111  0.97987168     0.13700
H2010       H  0.92066431  0.84613718  0.94827415     0.13500
C2011       C  0.68108492  0.64965654  0.92505876     0.85300
C2012       C  0.67650996  0.60522674  0.93310048    -0.54900
C2013       C  0.69482172  0.60200728  0.96200164     0.08200
C2014       C  0.72132217  0.64995288  0.97907798     0.19200
C2015       C  0.66294055  0.66134245  0.95450676    -0.55700
C2016       C  0.68322188  0.66054199  0.98303610     0.08300
C2017       C  0.73235077  0.68160997  0.92506286    -0.55200
C2018       C  0.75482381  0.68712269  0.95345327     0.08900
H2019       H  0.65935489  0.57793676  0.91598312     0.13400
H2020       H  0.73843270  0.65009733  0.00194208    -0.00900
H2021       H  0.63471164  0.66662448  0.95318776     0.13700
H2022       H  0.74938738  0.69905862  0.90297551     0.13500
C2023       C  0.64863340  0.48333745  0.94428458     0.85300
C2024       C  0.69823044  0.50929875  0.93240354    -0.54900
C2025       C  0.73226972  0.53017351  0.95485353     0.08200
C2026       C  0.71169074  0.53523078  0.98594214     0.19200
C2027       C  0.65157419  0.95940611  0.97428255    -0.55700
C2028       C  0.68211818  0.98729058  0.99723629     0.08300
C2029       C  0.64231737  0.51971958  0.95780553    -0.55200
C2030       C  0.67976512  0.55347202  0.97437101     0.08900
H2031       H  0.70525509  0.50977524  0.90731835     0.13400
H2032       H  0.73777170  0.55697350  0.00413165    -0.00900
H2033       H  0.62726491  0.92330228  0.97802399     0.13700
H2034       H  0.61454359  0.52318763  0.94894176     0.13500
C2035       C  0.81159908  0.99185385  0.92672905     0.85300
C2036       C  0.80264614  0.96412082  0.95807654    -0.54900
C2037       C  0.80285628  0.98618528  0.98512253     0.08200
C2038       C  0.81073407  0.53161941  0.97712371     0.19200
C2039       C  0.77410961  0.50159391  0.92526391    -0.55700
C2040       C  0.77246306  0.52346576  0.95179438     0.08300
C2041       C  0.85380639  0.53629586  0.93034447    -0.55200
C2042       C  0.85769413  0.55732301  0.95899078     0.08900
H2043       H  0.79834477  0.93094052  0.95894887     0.13400
H2044       H  0.81057658  0.54867810  0.99924004    -0.00900
H2045       H  0.75085026  0.49047381  0.90509789     0.13700
H2046       H  0.88118074  0.54925272  0.91291117     0.13500
C2047       C  0.98123958  0.62878292  0.94621626     0.85300
C2048       C  0.96760657  0.66266698  0.93698557    -0.54900
C2049       C  0.94090818  0.66870060  0.95765907     0.08200
C2050       C  0.92963486  0.63756785  0.98728171     0.19200
C2051       C  0.00637353  0.64761970  0.97763711    -0.55700
C2052       C  0.97953114  0.65165670  0.00015019     0.08300
C2053       C  0.93875587  0.58465046  0.95727929    -0.55200
C2054       C  0.90654233  0.58837435  0.97289419     0.08900
H2055       H  0.98548325  0.68526924  0.91690648     0.13400
H2056       H  0.90844027  0.64097175  0.00532930    -0.00900
H2057       H  0.54018511  0.65085938  0.98448759     0.13700
H2058       H  0.93153745  0.55268105  0.94774356     0.13500
C2059       C  0.97137587  0.77970755  0.92254961     0.85300
C2060       C  0.93099304  0.78327358  0.93005523    -0.54900
C2061       C  0.90955764  0.76489234  0.95928647     0.08200
C2062       C  0.93080167  0.73930780  0.97658786     0.19200
C2063       C  0.00332185  0.79780986  0.95240231    -0.55700
C2064       C  0.98176561  0.77724674  0.98079476     0.08300
C2065       C  0.94875531  0.72902715  0.92268375    -0.55200
C2066       C  0.93258386  0.70709343  0.95146176     0.08900
H2067       H  0.92139801  0.80082857  0.91308001     0.13400
H2068       H  0.91315410  0.72165362  0.99925645    -0.00900
H2069       H  0.53720077  0.83536485  0.95038752     0.13700
H2070       H  0.94807599  0.71199497  0.90101737     0.13500
C2071       C  0.80180860  0.80383173  0.08974466     0.85300
C2072       C  0.75006345  0.77551253  0.08919085    -0.54900
C2073       C  0.72913919  0.76958217  0.06011631     0.08200
C2074       C  0.76424111  0.80566153  0.03497227     0.19200
C2075       C  0.81890397  0.79003620  0.06062661    -0.55700
C2076       C  0.80020057  0.79218110  0.03165171     0.08300
C2077       C  0.81026428  0.84963717  0.08113203    -0.55200
C2078       C  0.79221121  0.85348999  0.05220477     0.08900
H2079       H  0.73107021  0.75791084  0.11082408     0.13400
H2080       H  0.74802268  0.80663943  0.01196342    -0.00900
H2081       H  0.84577658  0.78282715  0.06249834     0.13700
H2082       H  0.82813146  0.87659301  0.09840176     0.13500
C2083       C  0.50974986  0.66868151  0.09112887     0.85300
C2084       C  0.52964803  0.71887841  0.08984557    -0.54900
C2085       C  0.54568305  0.74036436  0.06079317     0.08200
C2086       C  0.54949837  0.70812148  0.03658116     0.19200
C2087       C  0.97709542  0.65047885  0.06079384    -0.55700
C2088       C  0.49900195  0.66803964  0.03267351     0.08300
C2089       C  0.55179256  0.66777406  0.08463529    -0.55200
C2090       C  0.57306222  0.68552792  0.05533995     0.08900
H2091       H  0.52898982  0.73594931  0.11110888     0.13400
H2092       H  0.56657128  0.72503209  0.01359067    -0.00900
H2093       H  0.94153922  0.62249905  0.06168429     0.13700
H2094       H  0.56318258  0.65302660  0.10276390     0.13500
C2095       C  0.49749772  0.81898914  0.06678290     0.85300
C2096       C  0.97375260  0.79824018  0.03564833    -0.54900
C2097       C  0.50270981  0.80121609  0.01217023     0.08200
C2098       C  0.55173675  0.81351585  0.02605806     0.19200
C2099       C  0.50936607  0.78349600  0.07443170    -0.55700
C2100       C  0.53789438  0.77934855  0.05441015     0.08300
C2101       C  0.54077321  0.86357545  0.05815533    -0.55200
C2102       C  0.57381806  0.86163344  0.04230488     0.08900
H2103       H  0.93869370  0.78885669  0.03127451     0.13400
H2104       H  0.57391594  0.81143686  0.00813566    -0.00900
H2105       H  0.48821422  0.75787415  0.09230781     0.13700
H2106       H  0.54619103  0.89484890  0.06769344     0.13500
C2107       C  0.64533267  0.63802393  0.07093181     0.85300
C2108       C  0.66046359  0.63022570  0.03906634    -0.54900
C2109       C  0.66516470  0.66129609  0.01526773     0.08200
C2110       C  0.65456780  0.69829897  0.02715332     0.19200
C2111       C  0.68306226  0.68738077  0.07665970    -0.55700
C2112       C  0.68888737  0.72044230  0.05517424     0.08300
C2113       C  0.60158624  0.63532739  0.06109971    -0.55200
C2114       C  0.60556727  0.67076902  0.04360552     0.08900
H2115       H  0.66739537  0.60375189  0.03548593     0.13400
H2116       H  0.65812763  0.72280109  0.00813716    -0.00900
H2117       H  0.70835272  0.69304016  0.09491066     0.13700
H2118       H  0.56924933  0.60848571  0.07133842     0.13500
C2119       C  0.83091483  0.97008420  0.07177712     0.85300
C2120       C  0.84033826  0.93579983  0.05848104    -0.54900
C2121       C  0.80454565  0.90147431  0.04109268     0.08200
C2122       C  0.77028177  0.91683001  0.02933575     0.19200
C2123       C  0.83082163  0.99587060  0.04174660    -0.55700
C2124       C  0.80123135  0.96802383  0.01826845     0.08300
C2125       C  0.78104062  0.94116968  0.08313352    -0.55200
C2126       C  0.74779451  0.92016187  0.06021588     0.08900
H2127       H  0.86918404  0.93429293  0.06753953     0.13400
H2128       H  0.74521527  0.89433624  0.01090520    -0.00900
H2129       H  0.85643816  0.52867514  0.03520364     0.13700
H2130       H  0.77300399  0.93922488  0.10824924     0.13500
C2131       C  0.67140091  0.96328231  0.08823225     0.85300
C2132       C  0.70617254  0.95003924  0.08887591    -0.54900
C2133       C  0.70770236  0.92743549  0.06266969     0.08200
C2134       C  0.67026181  0.92014804  0.03685611     0.19200
C2135       C  0.68119107  0.99132690  0.05711266    -0.55700
C2136       C  0.68085646  0.96914583  0.03013732     0.08300
C2137       C  0.62704078  0.91849640  0.08263985    -0.55200
C2138       C  0.62295566  0.89602309  0.05467832     0.08900
H2139       H  0.72888114  0.96064252  0.10936315     0.13400
H2140       H  0.67004786  0.90243425  0.01499820    -0.00900
H2141       H  0.68090737  0.51815570  0.05723689     0.13700
H2142       H  0.59990567  0.90645640  0.10020988     0.13500
In2143     In  0.84809659  0.83842555  0.84865161     1.36900
C2144       C  0.92703177  0.85019624  0.83951854     0.76400
O2145       O  0.83650308  0.78951733  0.81305850    -0.62100
O2146       O  0.84993620  0.85425429  0.79471498    -0.53000
C2147       C  0.76213250  0.77385913  0.84718921     0.69100
O2148       O  0.79457153  0.76843443  0.85503839    -0.47800
C2149       C  0.85482727  0.84502969  0.91354782     0.73800
O2150       O  0.89259634  0.81441273  0.85134500    -0.59700
O2151       O  0.82862928  0.85459250  0.89840361    -0.49800
O2152       O  0.92319147  0.88460372  0.83496810    -0.56100
C2153       C  0.84226785  0.81460872  0.78871601     0.83900
O2154       O  0.77288520  0.81481553  0.84302610    -0.58000
O2155       O  0.88169462  0.84253934  0.89516429    -0.61300
In2156     In  0.80668397  0.94454096  0.83450477     1.36900
C2157       C  0.72555327  0.92754311  0.84267099     0.76400
O2158       O  0.78958400  0.96611591  0.79121763    -0.62100
O2159       O  0.81180924  0.92094594  0.78261755    -0.53000
C2160       C  0.89209282  0.50426922  0.83317006     0.69100
O2161       O  0.86165102  0.51136693  0.82341734    -0.47800
C2162       C  0.81198646  0.97195477  0.89449757     0.73800
O2163       O  0.75990242  0.96494068  0.83334831    -0.59700
O2164       O  0.80458474  0.93238368  0.88945403    -0.49800
O2165       O  0.73067110  0.89371424  0.84529501    -0.56100
C2166       C  0.80139639  0.94846518  0.77066426     0.83900
O2167       O  0.88104050  0.96308809  0.84113090    -0.58000
O2168       O  0.81852516  0.99585276  0.86936455    -0.61300
In2169     In  0.64588404  0.65360623  0.83079250     1.36900
C2170       C  0.62461550  0.57018736  0.83270383     0.76400
O2171       O  0.68263620  0.64387835  0.86866029    -0.62100
O2172       O  0.62991907  0.65550581  0.88371481    -0.53000
C2173       C  0.71792840  0.73323156  0.83952741     0.69100
O2174       O  0.71849555  0.69929810  0.82957905    -0.47800
C2175       C  0.64452488  0.66029062  0.76592403     0.73800
O2176       O  0.66414666  0.60410981  0.82580199    -0.59700
O2177       O  0.60938927  0.62901603  0.78058549    -0.49800
O2178       O  0.59281237  0.57814686  0.83586312    -0.56100
C2179       C  0.66255300  0.64931141  0.89167624     0.83900
O2180       O  0.67836021  0.72791026  0.84249639    -0.58000
O2181       O  0.67154410  0.69148481  0.78433135    -0.61300
In2182     In  0.63082922  0.95721584  0.85134187     1.36900
C2183       C  0.62079135  0.52730090  0.84035907     0.76400
O2184       O  0.68317119  0.99845498  0.81621777    -0.62100
O2185       O  0.61683843  0.94466156  0.79802068    -0.53000
C2186       C  0.68623154  0.92993098  0.85103825     0.69100
O2187       O  0.69388848  0.47161979  0.85797195    -0.47800
C2188       C  0.62259485  0.95813805  0.91546065     0.73800
O2189       O  0.65665512  0.52943049  0.85125269    -0.59700
O2190       O  0.62907319  0.92986349  0.90232656    -0.49800
O2191       O  0.58477484  0.48746735  0.83666421    -0.56100
C2192       C  0.65756874  0.97895316  0.79194459     0.83900
O2193       O  0.64397757  0.90060241  0.84469024    -0.58000
O2194       O  0.60637234  0.97445699  0.89636007    -0.61300
In2195     In  0.00331484  0.62678004  0.84993193     1.36900
C2196       C  0.52383622  0.71292943  0.85102328     0.76400
O2197       O  0.96426867  0.60295624  0.89338314    -0.62100
O2198       O  0.53999176  0.65663238  0.90102320    -0.53000
C2199       C  0.93584062  0.54487924  0.84131047     0.69100
O2200       O  0.93298609  0.57771010  0.85012808    -0.47800
C2201       C  0.48917917  0.63572792  0.78996688     0.73800
O2202       O  0.98752329  0.67737391  0.85496907    -0.59700
O2203       O  0.52153537  0.62939714  0.79858318    -0.49800
O2204       O  0.55582407  0.70540440  0.84723076    -0.56100
C2205       C  0.50658254  0.62385675  0.91601604     0.83900
O2206       O  0.97637344  0.55229051  0.83918916    -0.58000
O2207       O  0.96652877  0.63893833  0.81194766    -0.61300
In2208     In  0.02249994  0.82104702  0.83062779     1.36900
C2209       C  0.96551213  0.84646828  0.83108283     0.76400
O2210       O  0.96841620  0.77970652  0.86500176    -0.62100
O2211       O  0.53302364  0.83687858  0.88340549    -0.53000
C2212       C  0.52725095  0.75542569  0.84298268     0.69100
O2213       O  0.99507775  0.75053386  0.83054520    -0.47800
C2214       C  0.52716666  0.82031783  0.76535394     0.73800
O2215       O  0.95553081  0.80709143  0.82344486    -0.59700
O2216       O  0.53165049  0.85508788  0.77809976    -0.49800
O2217       O  0.00809120  0.87676483  0.83524510    -0.56100
C2218       C  0.49166922  0.80354137  0.88910888     0.83900
O2219       O  0.56360476  0.79547168  0.84505629    -0.58000
O2220       O  0.03448669  0.79639865  0.78445709    -0.61300
C2221       C  0.84434898  0.98137489  0.59231583     0.85300
C2222       C  0.82704151  0.99413684  0.62162333    -0.54900
C2223       C  0.84827571  0.99442959  0.64996533     0.08200
C2224       C  0.88606863  0.98359566  0.64615548     0.19200
C2225       C  0.89445967  0.51488302  0.58886362    -0.55700
C2226       C  0.91730851  0.52109482  0.61722866     0.08300
C2227       C  0.83983313  0.93710577  0.60124127    -0.55200
C2228       C  0.85929095  0.93531847  0.63013217     0.08900
H2229       H  0.79857763  0.99907074  0.62045926     0.13400
H2230       H  0.90372745  0.98455792  0.66894904    -0.00900
H2231       H  0.91115770  0.53290267  0.56685335     0.13700
H2232       H  0.82175950  0.90891918  0.58492341     0.13500
C2233       C  0.50846945  0.65038799  0.61149368     0.85300
C2234       C  0.96882285  0.60293631  0.60048424    -0.54900
C2235       C  0.96062800  0.56857691  0.62170479     0.08200
C2236       C  0.99446917  0.58822596  0.65044211     0.19200
C2237       C  0.49142307  0.65534497  0.64344976    -0.55700
C2238       C  0.98468641  0.62466851  0.66395594     0.08300
C2239       C  0.55161469  0.65172108  0.62152930    -0.55200
C2240       C  0.54595742  0.61477930  0.63808723     0.08900
H2241       H  0.94606490  0.59854127  0.58097783     0.13400
H2242       H  0.98993691  0.56223289  0.66848953    -0.00900
H2243       H  0.48489334  0.68186999  0.64803785     0.13700
H2244       H  0.58472716  0.67851775  0.61234296     0.13500
C2245       C  0.64120992  0.61561948  0.59064375     0.85300
C2246       C  0.60001511  0.61803835  0.59720770    -0.54900
C2247       C  0.57801157  0.59966184  0.62616489     0.08200
C2248       C  0.60015051  0.57551025  0.64461604     0.21000
C2249       C  0.67265866  0.63497035  0.62061746    -0.55700
C2250       C  0.65090245  0.61460532  0.64902245     0.08300
C2251       C  0.61987167  0.56515461  0.59134424    -0.55200
C2252       C  0.60326355  0.54328145  0.62009181     0.08900
H2253       H  0.58966783  0.63417625  0.57943562     0.13400
H2254       H  0.58246353  0.55822555  0.66735844    -0.00900
H2255       H  0.70761788  0.66411973  0.61961460     0.13700
H2256       H  0.61997686  0.54805006  0.56991167     0.13500
C2257       C  0.64997051  0.96162524  0.61360136     0.85300
C2258       C  0.63821389  0.49894658  0.60591011    -0.54900
C2259       C  0.61037438  0.50388478  0.62612025     0.08200
C2260       C  0.59715939  0.96904883  0.65458844     0.19200
C2261       C  0.67335640  0.97690525  0.64608986    -0.55700
C2262       C  0.64590797  0.98046697  0.66848785     0.08300
C2263       C  0.60638869  0.91771129  0.62265419    -0.55200
C2264       C  0.57402594  0.92076543  0.63835138     0.08900
H2265       H  0.65944032  0.52431445  0.58789427     0.13400
H2266       H  0.57538090  0.97176820  0.67250815    -0.00900
H2267       H  0.70788436  0.98498392  0.65101577     0.13700
H2268       H  0.60002006  0.88599469  0.61324733     0.13500
C2269       C  0.97404162  0.82381784  0.59349037     0.85300
C2270       C  0.96314943  0.79489821  0.62431124    -0.54900
C2271       C  0.96511060  0.81714441  0.65171895     0.08200
C2272       C  0.97724747  0.86670738  0.64551638     0.19200
C2273       C  0.94117382  0.83930541  0.59311396    -0.55700
C2274       C  0.94013354  0.86111474  0.61979022     0.08300
C2275       C  0.52021525  0.86488462  0.59754981    -0.55200
C2276       C  0.52486139  0.88745289  0.62565876     0.08900
H2277       H  0.95724590  0.76105224  0.62463949     0.13400
H2278       H  0.97823772  0.88434692  0.66763882    -0.00900
H2279       H  0.91926733  0.83095675  0.57227299     0.13700
H2280       H  0.54724280  0.87638675  0.57996799     0.13500
C2281       C  0.81560449  0.81889749  0.61347064     0.85300
C2282       C  0.86509102  0.84626644  0.60095115    -0.54900
C2283       C  0.89970092  0.86755710  0.62308802     0.08200
C2284       C  0.87917698  0.87127912  0.65453093     0.19200
C2285       C  0.81652128  0.79234603  0.64265942    -0.55700
C2286       C  0.84805350  0.81983106  0.66549058     0.08300
C2287       C  0.80789831  0.85353123  0.62846775    -0.55200
C2288       C  0.84565037  0.88801482  0.64394822     0.08900
H2289       H  0.87154656  0.84715547  0.57564073     0.13400
H2290       H  0.90541153  0.89346375  0.67249355    -0.00900
H2291       H  0.79231373  0.75616796  0.64609220     0.13700
H2292       H  0.77919382  0.85611233  0.62055877     0.13500
C2293       C  0.96856949  0.63565739  0.75466101     0.85300
C2294       C  0.91703352  0.60514844  0.75431700    -0.54900
C2295       C  0.89546045  0.59956365  0.72541957     0.08200
C2296       C  0.92925012  0.63583754  0.70012887     0.19200
C2297       C  0.98643285  0.62325517  0.72516524    -0.55700
C2298       C  0.96654870  0.62438290  0.69643061     0.08300
C2299       C  0.97452101  0.68059024  0.74615785    -0.55200
C2300       C  0.95587435  0.68337631  0.71709724     0.08900
H2301       H  0.89893931  0.58653729  0.77594937     0.13400
H2302       H  0.91232017  0.63602706  0.67725753    -0.00900
H2303       H  0.51786439  0.61910699  0.72800970     0.13700
H2304       H  0.99239573  0.70820793  0.76294307     0.13500
C2305       C  0.99749755  0.79811840  0.73616595     0.85300
C2306       C  0.00615985  0.76478830  0.72018547    -0.54900
C2307       C  0.96881241  0.73067690  0.70423498     0.08200
C2308       C  0.93453188  0.74676752  0.69451955     0.19200
C2309       C  0.99609631  0.82543395  0.70754079    -0.55700
C2310       C  0.96499399  0.79839175  0.68429195     0.08300
C2311       C  0.94798638  0.76936582  0.74866532    -0.55200
C2312       C  0.91371330  0.74928331  0.72623447     0.08900
H2313       H  0.03506463  0.76235679  0.72778159     0.13400
H2314       H  0.90844508  0.72485066  0.67638726    -0.00900
H2315       H  0.52263652  0.85999459  0.70250270     0.13700
H2316       H  0.94098017  0.76722765  0.77397539     0.13500
C2317       C  0.84107038  0.79514855  0.75618762     0.85300
C2318       C  0.87489516  0.78079292  0.75595311    -0.54900
C2319       C  0.87482661  0.75796822  0.72949718     0.08200
C2320       C  0.83720208  0.75194686  0.70424817     0.19200
C2321       C  0.85058446  0.82362481  0.72538037    -0.55700
C2322       C  0.84851766  0.80133152  0.69800944     0.08300
C2323       C  0.79576096  0.75103569  0.75092002    -0.55200
C2324       C  0.79055993  0.72861696  0.72272480     0.08900
H2325       H  0.89817759  0.79060022  0.77603609     0.13400
H2326       H  0.83584935  0.73414900  0.68211420    -0.00900
H2327       H  0.85591430  0.85724413  0.72504401     0.13700
H2328       H  0.76884491  0.73962205  0.76861447     0.13500
C2329       C  0.80915297  0.97027947  0.73707911     0.85300
C2330       C  0.82580866  0.96378539  0.70558223    -0.54900
C2331       C  0.83084592  0.99529727  0.68215384     0.08200
C2332       C  0.81925395  0.53106127  0.69217169     0.19200
C2333       C  0.84798710  0.51761569  0.74057435    -0.55700
C2334       C  0.85422233  0.55147947  0.71999556     0.08300
C2335       C  0.76551646  0.96754854  0.72646492    -0.55200
C2336       C  0.77063805  0.50456766  0.70917977     0.08900
H2337       H  0.83272873  0.93733722  0.70184231     0.13400
H2338       H  0.82339590  0.55643150  0.67369341    -0.00900
H2339       H  0.87387631  0.52205937  0.75791789     0.13700
H2340       H  0.73295997  0.94117229  0.73674242     0.13500
C2341       C  0.67595290  0.50078525  0.75871827     0.85300
C2342       C  0.69364190  0.55043313  0.75842815    -0.54900
C2343       C  0.71059717  0.57342855  0.73005421     0.08200
C2344       C  0.71576517  0.54298382  0.70487085     0.19200
C2345       C  0.64529266  0.97797918  0.72924840    -0.55700
C2346       C  0.66588493  0.50206592  0.70048732     0.08300
C2347       C  0.71930397  0.50214281  0.75195698    -0.55200
C2348       C  0.74026163  0.52087074  0.72270370     0.08900
H2349       H  0.69222735  0.56600740  0.78020830     0.13400
H2350       H  0.73262970  0.56108138  0.68211523    -0.00900
H2351       H  0.61154069  0.94705254  0.73043413     0.13700
H2352       H  0.73365686  0.98911134  0.77008393     0.13500
C2353       C  0.66516007  0.65411173  0.73550907     0.85300
C2354       C  0.64228678  0.63713808  0.70317458    -0.54900
C2355       C  0.67002051  0.63351141  0.68138356     0.08200
C2356       C  0.71881119  0.64647936  0.69548469     0.19200
C2357       C  0.67836825  0.62021178  0.74522925    -0.55700
C2358       C  0.70525022  0.61393811  0.72469815     0.08300
C2359       C  0.70883580  0.69838635  0.72634440    -0.55200
C2360       C  0.74126897  0.69529505  0.71048606     0.08900
H2361       H  0.60773583  0.62872707  0.69785271     0.13400
H2362       H  0.74077183  0.64338880  0.67794057    -0.00900
H2363       H  0.66003389  0.59781789  0.76520020     0.13700
H2364       H  0.71552351  0.73029414  0.73553065     0.13500
In2365     In  0.80934973  0.98608839  0.49777664     1.36900
C2366       C  0.78663928  0.90326469  0.49855116     0.76400
O2367       O  0.84485476  0.97449749  0.53591729    -0.62100
O2368       O  0.79313220  0.98742636  0.55087567    -0.53000
C2369       C  0.88020127  0.56457762  0.50284944     0.69100
O2370       O  0.88072808  0.53114795  0.49169129    -0.47800
C2371       C  0.80492018  0.99379684  0.43345781     0.73800
O2372       O  0.82595028  0.93652267  0.49022322    -0.59700
O2373       O  0.77319222  0.95955385  0.44840202    -0.49800
O2374       O  0.75541242  0.91170533  0.50314848    -0.56100
C2375       C  0.82522039  0.98043377  0.55893692     0.83900
O2376       O  0.84090315  0.55939549  0.50671938    -0.58000
O2377       O  0.82702979  0.02744837  0.45138997    -0.61300
In2378     In  0.66930642  0.95920555  0.51671769     1.36900
C2379       C  0.69727219  0.54568484  0.51768068     0.76400
O2380       O  0.63115979  0.94222475  0.55958939    -0.62100
O2381       O  0.70132070  0.96509065  0.56849187    -0.53000
C2382       C  0.60062124  0.87657923  0.50825720     0.69100
O2383       O  0.59816004  0.91012344  0.51557433    -0.47800
C2384       C  0.65045960  0.96785393  0.45591398     0.73800
O2385       O  0.65762428  0.51307521  0.52506687    -0.59700
O2386       O  0.68237624  0.96041976  0.46258056    -0.49800
O2387       O  0.72728926  0.53567753  0.51289464    -0.56100
C2388       C  0.66274198  0.95457630  0.58018868     0.83900
O2389       O  0.64112071  0.88375968  0.50718821    -0.58000
O2390       O  0.63180554  0.97271251  0.48005834    -0.61300
In2391     In  0.68865926  0.65381240  0.49820183     1.36900
C2392       C  0.62871343  0.67653822  0.49886617     0.76400
O2393       O  0.63659805  0.61400072  0.53353699    -0.62100
O2394       O  0.70262451  0.66786390  0.55161248    -0.53000
C2395       C  0.70079730  0.58832317  0.50985633     0.69100
O2396       O  0.66381218  0.58421114  0.49979545    -0.47800
C2397       C  0.68970004  0.64866010  0.43407771     0.73800
O2398       O  0.61997905  0.63742568  0.49206331    -0.59700
O2399       O  0.70221341  0.68649426  0.44662619    -0.49800
O2400       O  0.67107950  0.70779356  0.50188057    -0.56100
C2401       C  0.66155973  0.63443258  0.55776604     0.83900
O2402       O  0.73607176  0.62900348  0.51213497    -0.58000
O2403       O  0.68718575  0.61990946  0.45383795    -0.61300
In2404     In  0.00811755  0.66936303  0.51418728     1.36900
C2405       C  0.58969329  0.67966534  0.50718036     0.76400
O2406       O  0.99934349  0.62238577  0.47808971    -0.62100
O2407       O  0.51137708  0.68581843  0.46176520    -0.53000
C2408       C  0.92380525  0.60468830  0.51150055     0.69100
O2409       O  0.95580847  0.59929215  0.52113053    -0.47800
C2410       C  0.51664331  0.67850351  0.58030340     0.73800
O2411       O  0.55483105  0.64380215  0.51873400    -0.59700
O2412       O  0.48548924  0.67961287  0.56450410    -0.49800
O2413       O  0.58615323  0.71421172  0.50263271    -0.56100
C2414       C  0.00394800  0.64742950  0.45399959     0.83900
O2415       O  0.93419008  0.64546191  0.50667658    -0.58000
O2416       O  0.04697459  0.69387159  0.56127012    -0.61300
In2417     In  0.79166247  0.79394742  0.51909781     1.36900
C2418       C  0.78326940  0.86112838  0.50732127     0.76400
O2419       O  0.84573380  0.83617589  0.48471044    -0.62100
O2420       O  0.78023229  0.78301483  0.46530100    -0.53000
C2421       C  0.84786955  0.76760276  0.51805916     0.69100
O2422       O  0.85779672  0.80654077  0.52682041    -0.47800
C2423       C  0.78596121  0.79564414  0.58399898     0.73800
O2424       O  0.81955763  0.86465201  0.51871719    -0.59700
O2425       O  0.78434380  0.76278489  0.57039223    -0.49800
O2426       O  0.74752556  0.82085914  0.50432490    -0.56100
C2427       C  0.82131427  0.81707248  0.45989618     0.83900
O2428       O  0.80537030  0.73772166  0.51321194    -0.58000
O2429       O  0.77855642  0.81915046  0.56474652    -0.61300
In2430     In  0.96707070  0.77913344  0.50053062     1.36900
C2431       C  0.88671937  0.76456162  0.50932205     0.76400
O2432       O  0.95014662  0.80000636  0.45694916    -0.62100
O2433       O  0.97246032  0.75476674  0.44898369    -0.53000
C2434       C  0.55658204  0.83514439  0.50084738     0.69100
O2435       O  0.52505138  0.84104981  0.49183391    -0.47800
C2436       C  0.97322974  0.80415879  0.56096447     0.73800
O2437       O  0.92161153  0.80159666  0.50005032    -0.59700
O2438       O  0.96428028  0.76416857  0.55509480    -0.49800
O2439       O  0.89069688  0.73003612  0.51134326    -0.56100
C2440       C  0.96233148  0.78232900  0.43670200     0.83900
O2441       O  0.54430276  0.79400388  0.50666335    -0.58000
O2442       O  0.98044927  0.82915365  0.53639135    -0.61300
In2443     In  0.85092023  0.99200277  0.16562090     1.36900
C2444       C  0.85888469  0.92319840  0.17314086     0.76400
O2445       O  0.87888448  0.98265750  0.11883385    -0.62100
O2446       O  0.85817753  0.52348865  0.11082573    -0.53000
C2447       C  0.79015302  0.01275844  0.16842469     0.69100
O2448       O  0.78185939  0.97417102  0.16006327    -0.47800
C2449       C  0.82241067  0.47268148  0.22192366     0.73800
O2450       O  0.82282184  0.92070041  0.16223868    -0.59700
O2451       O  0.86332210  0.50672285  0.21590549    -0.49800
O2452       O  0.89420216  0.96305081  0.17758027    -0.56100
C2453       C  0.86006571  0.49195257  0.09816019     0.83900
O2454       O  0.83457724  0.54920133  0.16716094    -0.58000
O2455       O  0.80102399  0.94945256  0.20114874    -0.61300
In2456     In  0.67198014  0.00584026  0.18074406     1.36900
C2457       C  0.75075941  0.01569999  0.17561447     0.76400
O2458       O  0.66408752  0.95765765  0.14528237    -0.62100
O2459       O  0.67430026  0.51508324  0.12488748    -0.53000
C2460       C  0.58664649  0.94121640  0.17848093     0.69100
O2461       O  0.61913522  0.93648509  0.18790524    -0.47800
C2462       C  0.68115989  0.50614189  0.24383601     0.73800
O2463       O  0.71512893  0.97972191  0.18631010    -0.59700
O2464       O  0.66488278  0.52808715  0.23064373    -0.49800
O2465       O  0.74709444  0.55411274  0.16677094    -0.56100
C2466       C  0.66709531  0.47546866  0.12013172     0.83900
O2467       O  0.59709004  0.98184068  0.17258950    -0.58000
O2468       O  0.70978985  0.02599512  0.22854555    -0.61300
In2469     In  0.97470461  0.82048177  0.16287351     1.36900
C2470       C  0.95232952  0.73676606  0.16451194     0.76400
O2471       O  0.01148840  0.81035609  0.20139512    -0.62100
O2472       O  0.95922629  0.82179121  0.21641558    -0.53000
C2473       C  0.54284569  0.89967829  0.17145459     0.69100
O2474       O  0.54493873  0.86554725  0.16535581    -0.47800
C2475       C  0.98317407  0.82424313  0.09941069     0.73800
O2476       O  0.48761024  0.76672304  0.15570031    -0.59700
O2477       O  0.94303975  0.80900399  0.11047937    -0.49800
O2478       O  0.92012844  0.74449437  0.16544230    -0.56100
C2479       C  0.99161670  0.81559209  0.22453777     0.83900
O2480       O  0.50266110  0.89345285  0.17112686    -0.58000
O2481       O  0.01452497  0.84110649  0.12027602    -0.61300
In2482     In  0.95866057  0.62721485  0.18252528     1.36900
C2483       C  0.51765175  0.60220961  0.18327444     0.76400
O2484       O  0.94357363  0.65048550  0.22827911    -0.62100
O2485       O  0.95277724  0.59618611  0.23365000    -0.53000
C2486       C  0.94899947  0.69416962  0.17194781     0.69100
O2487       O  0.48278187  0.69642369  0.18240246    -0.47800
C2488       C  0.98731375  0.64919442  0.12349572     0.73800
O2489       O  0.52674395  0.64138452  0.19065617    -0.59700
O2490       O  0.94617117  0.61526885  0.12895959    -0.49800
O2491       O  0.47523432  0.57168796  0.17891455    -0.56100
C2492       C  0.95247631  0.62798785  0.24739146     0.83900
O2493       O  0.91389960  0.65389437  0.16765378    -0.58000
O2494       O  0.01153099  0.66935457  0.14814530    -0.61300
In2495     In  0.63817474  0.61262259  0.16913900     1.36900
C2496       C  0.72555160  0.67229440  0.17121911     0.76400
O2497       O  0.64938502  0.66312595  0.20399573    -0.62100
O2498       O  0.63605463  0.59960470  0.22378610    -0.53000
C2499       C  0.55712768  0.59891812  0.17611804     0.69100
O2500       O  0.59283107  0.63577684  0.16777371    -0.47800
C2501       C  0.63751140  0.61774789  0.10519029     0.73800
O2502       O  0.69500707  0.67863265  0.16056992    -0.59700
O2503       O  0.64311220  0.58713632  0.11777120    -0.49800
O2504       O  0.71251566  0.63123133  0.17821877    -0.56100
C2505       C  0.64321931  0.63907810  0.22893163     0.83900
O2506       O  0.56075355  0.56419846  0.17849835    -0.58000
O2507       O  0.62819507  0.63813056  0.12524745    -0.61300
In2508     In  0.83487047  0.79730221  0.18530836     1.36900
C2509       C  0.85567839  0.88072502  0.18133446     0.76400
O2510       O  0.79657343  0.78038803  0.22823103    -0.62100
O2511       O  0.86763917  0.80777158  0.23730795    -0.53000
C2512       C  0.76887415  0.71373546  0.17907660     0.69100
O2513       O  0.76510652  0.74658050  0.18605128    -0.47800
C2514       C  0.81841470  0.80201993  0.12355504     0.73800
O2515       O  0.81618922  0.84671121  0.18730913    -0.59700
O2516       O  0.85108303  0.79633567  0.13184567    -0.49800
O2517       O  0.88806203  0.87324599  0.18040619    -0.56100
C2518       C  0.82827828  0.79484613  0.24886982     0.83900
O2519       O  0.80978894  0.72212012  0.17770966    -0.58000
O2520       O  0.79711807  0.80533825  0.14661956    -0.61300
C2521       C  0.82845419  0.98990329  0.40361252     0.85300
C2522       C  0.80658688  0.97470698  0.37082916    -0.54900
C2523       C  0.83428763  0.97115365  0.34906198     0.08200
C2524       C  0.88270840  0.98316406  0.36342836     0.19200
C2525       C  0.84076569  0.95513513  0.41259369    -0.55700
C2526       C  0.86843263  0.94980123  0.39228647     0.08300
C2527       C  0.87209453  0.53162182  0.39299827    -0.55200
C2528       C  0.90422579  0.52808376  0.37674076     0.08900
H2529       H  0.77221806  0.96672957  0.36534552     0.13400
H2530       H  0.90483111  0.98026687  0.34592081    -0.00900
H2531       H  0.82138605  0.93127568  0.43156818     0.13700
H2532       H  0.87974623  0.56325032  0.40331687     0.13500
C2533       C  0.63111803  0.96805414  0.42273917     0.85300
C2534       C  0.58023919  0.93484094  0.42261609    -0.54900
C2535       C  0.55801204  0.92887143  0.39396573     0.08200
C2536       C  0.59032196  0.96635118  0.36849556     0.19200
C2537       C  0.65043155  0.95796004  0.39294947    -0.55700
C2538       C  0.62959867  0.95787851  0.36442288     0.08300
C2539       C  0.63547090  0.51169272  0.41416690    -0.55200
C2540       C  0.61695906  0.51410388  0.38494219     0.08900
H2541       H  0.56326648  0.91583561  0.44439727     0.13400
H2542       H  0.57271413  0.96554027  0.34571219    -0.00900
H2543       H  0.67976717  0.95439132  0.39410258     0.13700
H2544       H  0.65240630  0.53926237  0.43100477     0.13500
C2545       C  0.66170339  0.62958273  0.40357576     0.85300
C2546       C  0.66921670  0.59542040  0.38755027    -0.54900
C2547       C  0.63156026  0.56194974  0.37149331     0.08200
C2548       C  0.59942631  0.58049678  0.36096523     0.19200
C2549       C  0.66286702  0.65835305  0.37519290    -0.55700
C2550       C  0.63213368  0.63239534  0.35146389     0.08300
C2551       C  0.61150852  0.60248486  0.41508020    -0.55200
C2552       C  0.57800266  0.58361127  0.39212348     0.08900
H2553       H  0.69733326  0.59185920  0.39547340     0.13400
H2554       H  0.57374591  0.55975217  0.34225713    -0.00900
H2555       H  0.68799548  0.69447911  0.37267827     0.13700
H2556       H  0.60347440  0.60071429  0.44022476     0.13500
C2557       C  0.00322745  0.62835022  0.42139230     0.85300
C2558       C  0.54004884  0.61668058  0.42107813    -0.54900
C2559       C  0.53947047  0.59292287  0.39501274     0.08200
C2560       C  0.00083699  0.58529306  0.36979936     0.19200
C2561       C  0.01027234  0.65562777  0.39023616    -0.55700
C2562       C  0.00956414  0.63356690  0.36306075     0.08300
C2563       C  0.95945185  0.58243266  0.41704983    -0.55200
C2564       C  0.95420717  0.56030830  0.38879841     0.08900
H2565       H  0.56527345  0.62939134  0.44015465     0.13400
H2566       H  0.00019964  0.56747700  0.34787488    -0.00900
H2567       H  0.51467517  0.68831379  0.39085036     0.13700
H2568       H  0.93293325  0.56983825  0.43518999     0.13500
C2569       C  0.97122218  0.80450081  0.40318826     0.85300
C2570       C  0.98725630  0.79728404  0.37161292    -0.54900
C2571       C  0.99363999  0.82932456  0.34820551     0.08200
C2572       C  0.98435837  0.86714988  0.36054183     0.19200
C2573       C  0.50983294  0.84683350  0.40933602    -0.55700
C2574       C  0.51666282  0.88096895  0.38873058     0.08300
C2575       C  0.92841359  0.80341483  0.39264074    -0.55200
C2576       C  0.93468960  0.84072822  0.37644585     0.08900
H2577       H  0.99312419  0.77012424  0.36785780     0.13400
H2578       H  0.98955325  0.89267191  0.34184959    -0.00900
H2579       H  0.53498155  0.85111505  0.42725466     0.13700
H2580       H  0.89547842  0.77746388  0.40269181     0.13500
C2581       C  0.84147914  0.83794936  0.42715889     0.85300
C2582       C  0.85879989  0.88754037  0.42669481    -0.54900
C2583       C  0.87514659  0.91024209  0.39809283     0.08200
C2584       C  0.88041232  0.87987701  0.37302090     0.19200
C2585       C  0.81011336  0.81731381  0.39728928    -0.55700
C2586       C  0.83062123  0.83899067  0.36891460     0.08300
C2587       C  0.88500891  0.83972111  0.42010629    -0.55200
C2588       C  0.90543824  0.85811889  0.39062990     0.08900
H2589       H  0.85705925  0.90320234  0.44831826     0.13400
H2590       H  0.89701178  0.89802751  0.35022291    -0.00900
H2591       H  0.77593141  0.78693435  0.39833430     0.13700
H2592       H  0.89704757  0.82462879  0.43737219     0.13500
C2593       C  0.80536914  0.95258856  0.25822257     0.85300
C2594       C  0.76478408  0.95604352  0.26442547    -0.54900
C2595       C  0.74230048  0.93803408  0.29321278     0.08200
C2596       C  0.76374169  0.91345645  0.31223969     0.19200
C2597       C  0.83675389  0.97191758  0.28822997    -0.55700
C2598       C  0.81480470  0.95214042  0.31668778     0.08300
C2599       C  0.78292959  0.90188875  0.25925241    -0.55200
C2600       C  0.76640365  0.88044321  0.28815250     0.08900
H2601       H  0.75469519  0.97179073  0.24614852     0.13400
H2602       H  0.74571540  0.89661787  0.33498562    -0.00900
H2603       H  0.87192830  0.00065369  0.28717446     0.13700
H2604       H  0.78222600  0.88422223  0.23791005     0.13500
C2605       C  0.66889283  0.98544236  0.27688307     0.85300
C2606       C  0.63346958  0.93637738  0.26845950    -0.54900
C2607       C  0.62570649  0.90247532  0.29004485     0.08200
C2608       C  0.65898622  0.92293844  0.31892657     0.19200
C2609       C  0.65241333  0.99041912  0.30912612    -0.55700
C2610       C  0.64780956  0.95857645  0.33192209     0.08300
C2611       C  0.71276414  0.98769328  0.28613511    -0.55200
C2612       C  0.70857763  0.95186526  0.30357487     0.08900
H2613       H  0.61131563  0.93127488  0.24833754     0.13400
H2614       H  0.65485689  0.89737259  0.33722147    -0.00900
H2615       H  0.64958478  0.51655451  0.31340887     0.13700
H2616       H  0.74535162  0.01478619  0.27650316     0.13500
C2617       C  0.81446337  0.80154660  0.28196278     0.85300
C2618       C  0.80207903  0.83660949  0.27415715    -0.54900
C2619       C  0.77429878  0.84145332  0.29454299     0.08200
C2620       C  0.76149780  0.80809427  0.32326701     0.19200
C2621       C  0.83848223  0.81807219  0.31398823    -0.55700
C2622       C  0.81094655  0.82094754  0.33660026     0.08300
C2623       C  0.77175195  0.75709421  0.29171468    -0.55200
C2624       C  0.73905343  0.75953997  0.30761516     0.08900
H2625       H  0.82237177  0.86136462  0.25556173     0.13400
H2626       H  0.73978411  0.81051476  0.34141553    -0.00900
H2627       H  0.87325412  0.82669695  0.31860382     0.13700
H2628       H  0.76577198  0.72557005  0.28220719     0.13500
C2629       C  0.48174419  0.65229432  0.27824876     0.85300
C2630       C  0.53171843  0.67903644  0.26687520    -0.54900
C2631       C  0.56513868  0.69938253  0.28977845     0.08200
C2632       C  0.54361337  0.70343676  0.32063319     0.19200
C2633       C  0.98072720  0.62481951  0.30676313    -0.55700
C2634       C  0.51092896  0.65196953  0.33125121     0.08300
C2635       C  0.47416245  0.68734224  0.29276067    -0.55200
C2636       C  0.51150649  0.72137661  0.30895366     0.08900
H2637       H  0.53949731  0.68001941  0.24177097     0.13400
H2638       H  0.56921302  0.72505076  0.33911613    -0.00900
H2639       H  0.95630116  0.58864642  0.31002582     0.13700
H2640       H  0.44613810  0.69054616  0.28404427     0.13500
C2641       C  0.50970658  0.81375782  0.25728471     0.85300
C2642       C  0.99206146  0.82870819  0.28729456    -0.54900
C2643       C  0.51103162  0.82504925  0.31519649     0.08200
C2644       C  0.55091319  0.81712565  0.31161999     0.19200
C2645       C  0.56051803  0.84760667  0.25722191    -0.55700
C2646       C  0.58324296  0.85443971  0.28572205     0.08300
C2647       C  0.50797330  0.77078883  0.26573537    -0.55200
C2648       C  0.52654782  0.76911465  0.29503118     0.08900
H2649       H  0.96420905  0.83453155  0.28557543     0.13400
H2650       H  0.56840251  0.81861465  0.33462150    -0.00900
H2651       H  0.57708872  0.86532926  0.23505866     0.13700
H2652       H  0.98658108  0.74358964  0.24998417     0.13500
C2653       C  0.64277524  0.65867552  0.26107207     0.85300
C2654       C  0.63471225  0.63080818  0.29192449    -0.54900
C2655       C  0.63439539  0.65210064  0.31909513     0.08200
C2656       C  0.64315168  0.70045493  0.31288983     0.19200
C2657       C  0.60655107  0.66976311  0.26105866    -0.55700
C2658       C  0.60499585  0.69212656  0.28732614     0.08300
C2659       C  0.68623162  0.70445645  0.26629194    -0.55200
C2660       C  0.69007008  0.72613284  0.29465885     0.08900
H2661       H  0.63094565  0.59784537  0.29239956     0.13400
H2662       H  0.64297141  0.71753772  0.33498638    -0.00900
H2663       H  0.58310881  0.65812783  0.24090965     0.13700
H2664       H  0.71330923  0.71732819  0.24861259     0.13500
loop_ 
_geom_bond_atom_site_label_1 
_geom_bond_atom_site_label_2 
_geom_bond_distance 
_geom_bond_site_symmetry_2 
_ccdc_geom_bond_type 
C1            C2   1.531       .  S
C1            C7   1.521       .  S
C1            C5   1.513       .  S
C1          C151   1.533       .  S
C2            H9   1.083       .  S
C2            C3   1.371       .  D
C3            C4   1.535       .  S
C3           C20   1.534       .  S
C4            C8   1.592       .  S
C4            C6   1.610       .  S
C4           H10   1.110   1_556  S
C5           H11   1.086       .  S
C5            C6   1.392       .  D
C6           C78   1.497   1_556  S
C7           H12   1.089       .  S
C7            C8   1.365       .  D
C8           C63   1.559       .  S
C13          C14   1.507       .  S
C13          C19   1.502       .  S
C13          C17   1.543       .  S
C13         C181   1.519       .  S
C14          H21   1.084       .  S
C14          C15   1.387       .  D
C15          C16   1.588       .  S
C15          C32   1.562       .  S
C16          C20   1.583       .  S
C16          C18   1.557       .  S
C16          H22   1.110   1_556  S
C17          H23   1.086       .  S
C17          C18   1.373       .  D
C18         C111   1.490   1_556  S
C19          H24   1.084       .  S
C19          C20   1.362       .  D
C25          C26   1.540   1_565  S
C25          C31   1.518   1_565  S
C25         C695   1.523       .  S
C25         C856   1.521       .  S
C26          H33   1.073       .  S
C26          C27   1.362       .  D
C27          C28   1.542       .  S
C27          C42   1.542       .  S
C28          C32   1.613       .  S
C28         C696   1.584   1_545  S
C28          H34   1.110   1_556  S
C29         C691   1.518       .  S
C29          H35   1.086       .  S
C29          C30   1.376       .  D
C30         C694   1.576       .  S
C30         C138   1.484   1_556  S
C31          H36   1.088       .  S
C31          C32   1.372       .  D
C37          C38   1.538       .  S
C37         C709   1.510       .  S
C37         C707   1.496       .  S
C37         C164   1.522       .  S
C38          H45   1.085       .  S
C38          C39   1.377       .  D
C39         C706   1.561       .  S
C39         C126   1.495   1_556  S
C40          C44   1.571       .  S
C40          C42   1.587       .  S
C40         C705   1.564   1_545  S
C40          H46   1.110       .  S
C41         C703   1.498   1_545  S
C41          H47   1.075   1_545  S
C41          C42   1.377       .  D
C43         C703   1.517   1_545  S
C43          H48   1.087       .  S
C43          C44   1.378       .  D
C44          C56   1.546       .  S
C49          C50   1.525       .  S
C49          C55   1.522       .  S
C49          C53   1.509       .  S
C49        C1539   1.541       .  S
C50          H57   1.077       .  S
C50          C51   1.374       .  D
C51          C52   1.539       .  S
C51          C68   1.529       .  S
C52          C56   1.581       .  S
C52          C54   1.597       .  S
C52          H58   1.110   1_556  S
C53        H1391   1.086       .  S
C53          C54   1.383       .  D
C54        C1422   1.492   1_556  S
C55          H60   1.087       .  S
C55          C56   1.372       .  D
H59        C1385   1.085       .  S
C61          C62   1.508       .  S
C61          C67   1.494       .  S
C61          C65   1.548       .  S
C61        C1552   1.517       .  S
C62          H69   1.082       .  S
C62          C63   1.385       .  D
C63          C64   1.586       .  S
C64          C68   1.587       .  S
C64          C66   1.544       .  S
C64          H70   1.110       .  S
C65        H1403   1.086       .  S
C65          C66   1.368       .  D
C66        C1431   1.486   1_556  S
C67          H72   1.082       .  S
C67          C68   1.365       .  D
H71        C1397   1.086       .  S
C73          C74   1.504       .  S
C73          C79   1.502       .  S
C73          C77   1.545       .  S
C73         C516   1.519       .  S
C74          H81   1.086       .  S
C74          C75   1.362       .  D
C75          C76   1.583       .  S
C75         C114   1.538       .  S
C76          C80   1.591       .  S
C76          C78   1.560       .  S
C76          H82   1.110       .  S
C77          H83   1.086       .  S
C77          C78   1.374       .  D
C79          H84   1.085       .  S
C79          C80   1.385       .  D
C80         C123   1.554       .  S
C85          C86   1.496       .  S
C85          C91   1.504       .  S
C85        C1421   1.547   1_455  S
C85        C1822   1.520   1_455  S
C86          H93   1.084       .  S
C86          C87   1.364       .  D
C87          C88   1.588       .  S
C87         C102   1.531       .  S
C88          C92   1.584       .  S
C88          C90   1.546   1_455  S
C88          H94   1.110       .  S
C89        C1417   1.550       .  S
C89          H95   1.086       .  S
C89        C1422   1.370       .  D
C90        C1421   1.372       .  D
C90        C1386   1.488       .  S
C91          H96   1.084       .  S
C91          C92   1.387       .  D
C92         C116   1.555       .  S
C97         C103   1.518   1_655  S
C97         C101   1.522   1_655  S
C97        C1430   1.512       .  S
C97        C1809   1.545       .  S
C98        C1429   1.508       .  S
C98         H105   1.086       .  S
C98        C1431   1.391       .  D
C99         C100   1.592   1_655  S
C99        C1430   1.385       .  D
C99        C1398   1.491   1_554  S
C100        C104   1.581       .  S
C100        C102   1.542       .  S
C100        H106   1.110       .  S
C101        H107   1.076   1_455  S
C101        C102   1.376       .  D
C103        H108   1.086       .  S
C103        C104   1.371       .  D
C104        C140   1.545       .  S
C109        C110   1.511       .  S
C109        C115   1.513       .  S
C109        C113   1.528       .  S
C109        C503   1.531       .  S
C110        H117   1.085       .  S
C110        C111   1.393       .  D
C111        C112   1.610       .  S
C112        C116   1.593       .  S
C112        C114   1.539       .  S
C112        H118   1.110       .  S
C113        H119   1.084       .  S
C113        C114   1.370       .  D
C115        H120   1.089       .  S
C115        C116   1.363       .  D
C121        C122   1.516       .  S
C121        C127   1.536       .  S
C121        C125   1.525       .  S
C121       C1121   1.529       .  S
C122        H129   1.087       .  S
C122        C123   1.379       .  D
C123        C124   1.608       .  S
C124        C128   1.552       .  S
C124        C126   1.577       .  S
C124        H130   1.110       .  S
C125        H797   1.086       .  S
C125        C126   1.377       .  D
C127        H132   1.077       .  S
C127        C128   1.366       .  D
C128        C135   1.547       .  S
H131        C791   1.086   1_545  S
C133        C134   1.501       .  S
C133        C139   1.511       .  S
C133        C137   1.532       .  S
C133       C1134   1.525       .  S
C134        H141   1.075       .  S
C134        C135   1.377       .  D
C135        C136   1.584       .  S
C136        C140   1.573       .  S
C136        C138   1.564       .  S
C136        H142   1.110       .  S
C137        H809   1.086       .  S
C137        C138   1.378       .  D
C139        H144   1.086       .  S
C139        C140   1.377       .  D
H143        C803   1.086   1_545  S
In145       O147   2.184       .  S
In145       O148   2.309       .  S
In145       O156   2.305       .  S
In145       O150   2.123       .  S
In145       O152   2.095       .  S
In145       O153   2.376       .  S
In145       O154   2.303       .  S
In145       O157   2.121       .  S
C146        O152   1.262       .  A
C146        O154   1.285       .  A
C146        C211   1.456       .  S
O147        C155   1.266       .  A
O148        C155   1.286       .  A
C149        O156   1.279       .  A
C149        O150   1.263       .  A
C149        C175   1.465       .  S
C151        O153   1.282       .  A
C151        O157   1.257       .  A
C155        C319   1.528       .  S
In158       O160   2.226       .  S
In158       O161   2.357       .  S
In158       O169   2.261       .  S
In158       O165   2.115       .  S
In158       O166   2.294       .  S
In158       O167   2.273       .  S
In158       O170   2.157       .  S
In158       O829   2.154       .  S
C159        O165   1.274       .  A
C159        O167   1.286       .  A
C159        C188   1.456       .  S
O160        C168   1.254       .  A
O161        C168   1.271       .  A
C162        O163   1.272       .  A
C162        O835   1.277   1_545  A
C162        C201   1.453       .  S
O163       In824   2.152   1_545  S
C164        O166   1.292       .  A
C164        O170   1.271       .  A
C168        C331   1.544       .  S
O169        C828   1.279       .  A
In171       O173   2.162       .  S
In171       O174   2.301       .  S
In171       O182   2.310       .  S
In171       O176   2.117       .  S
In171       O178   2.131       .  S
In171       O179   2.365       .  S
In171       O180   2.295       .  S
In171       O183   2.127       .  S
C172        O178   1.263       .  A
C172        O180   1.279       .  A
C172        C185   1.459       .  S
O173        C181   1.265       .  A
O174        C181   1.287       .  A
C175        O182   1.284       .  A
C175        O176   1.264       .  A
C177        C355   1.530       .  S
C177        O179   1.280       .  A
C177        O183   1.260       .  A
In184       O186   2.156       .  S
In184       O187   2.271       .  S
In184       O195   2.273       .  S
In184       O192   2.317       .  S
In184       O196   2.272       .  S
In184       O855   2.116       .  S
In184       O857   2.119       .  S
In184       O859   2.248       .  S
C185        O191   1.273       .  A
C185        O193   1.288   1_545  A
O186        C194   1.272       .  A
O187        C194   1.293       .  A
C188        O195   1.282       .  A
C188        O855   1.270       .  A
O189       In850   2.123       .  S
O189        C854   1.271       .  A
C190        C691   1.526       .  S
C190        O192   1.265       .  A
C190        O196   1.252       .  A
O191       In850   2.112   1_545  S
O193       In850   2.279       .  S
C194       C1009   1.514       .  S
In197       O199   2.259       .  S
In197       O208   2.244       .  S
In197       O202   2.144       .  S
In197       O204   2.151       .  S
In197       O209   2.131       .  S
In197      O1532   2.330       .  S
In197      O1537   2.302       .  S
In197      O1538   2.254       .  S
C198        O206   1.279       .  A
C198       O1536   1.264   1_455  A
C198        C214   1.456       .  S
O199       C1539   1.255       .  A
O200      In1529   2.369       .  S
O200        C207   1.280   1_455  A
C201        O208   1.282       .  A
C201        O202   1.275       .  A
C203       C1627   1.526       .  S
C203        O205   1.286   1_655  A
C203       O1541   1.266       .  A
O204       C1530   1.272       .  A
O205      In1529   2.302       .  S
O206      In1529   2.282       .  S
C207       C1381   1.531       .  S
C207       O1531   1.259       .  A
O209       C1535   1.266       .  A
In210       O212   2.184       .  S
In210       O215   2.135       .  S
In210       O217   2.098       .  S
In210       O219   2.273       .  S
In210       O222   2.287       .  S
In210      O1545   2.251       .  S
In210      O1553   2.238       .  S
In210      O1550   2.300       .  S
C211        O217   1.273       .  A
C211        O219   1.284       .  A
O212       C1552   1.276       .  A
O213      In1542   2.269       .  S
O213        C220   1.293   1_455  A
C214        O221   1.286       .  A
C214       O1547   1.276   1_455  A
O215       C1546   1.279       .  A
C216       C1639   1.527       .  S
C216        O218   1.264       .  A
C216       O1554   1.254       .  A
O218      In1542   2.321       .  S
C220       C1393   1.514       .  S
C220       O1544   1.273       .  A
O221      In1542   2.262       .  S
O222       C1548   1.254       .  A
C223        C224   1.545       .  S
C223        C229   1.503       .  S
C223        C893   1.505       .  S
C223        C377   1.522       .  S
C224        H231   1.086       .  S
C224        C225   1.377       .  D
C225        C226   1.561       .  S
C225        C333   1.500       .  S
C226        C230   1.586       .  S
C226        C894   1.584       .  S
C226        H232   1.110       .  S
C227        C889   1.504   1_545  S
C227        H233   1.082       .  S
C227        C228   1.365       .  D
C228        C892   1.589   1_545  S
C228        C237   1.541       .  S
C229        H234   1.086       .  S
C229        C230   1.381       .  D
C230        C290   1.552       .  S
C235        C241   1.521       .  S
C235        C239   1.513   1_455  S
C235       C1568   1.528   1_455  S
C235        C412   1.543       .  S
C236       C1567   1.526       .  S
C236        H243   1.076       .  S
C236        C237   1.376       .  D
C237        C238   1.546       .  S
C238        C240   1.598       .  S
C238       C1574   1.594       .  S
C238        H244   1.110       .  S
C239        H245   1.086       .  S
C239       C1572   1.386       .  D
C240       C1571   1.386       .  D
C240        C300   1.498       .  S
C241        H246   1.087       .  S
C241        C242   1.368       .  D
C242       C1570   1.592   1_455  S
C242        C249   1.553       .  S
C247        C248   1.507       .  S
C247        C253   1.497       .  S
C247        C251   1.546       .  S
C247        C403   1.517       .  S
C248        H255   1.085       .  S
C248        C249   1.388       .  D
C249        C250   1.588       .  S
C250        C254   1.587       .  S
C250        C252   1.549       .  S
C250        H256   1.110       .  S
C251        H257   1.086       .  S
C251        C252   1.369       .  D
C252        C357   1.489       .  S
C253        H258   1.085       .  S
C253        C254   1.363       .  D
C254        C261   1.535       .  S
C259        C265   1.513       .  S
C259        C263   1.514       .  S
C259        C926   1.523       .  S
C259        C390   1.531       .  S
C260        C925   1.526       .  S
C260        H267   1.083   1_565  S
C260        C261   1.370   1_565  D
C261        C928   1.539   1_545  S
C262        C266   1.584       .  S
C262        C264   1.607       .  S
C262        C927   1.539       .  S
C262        H268   1.110       .  S
C263        H269   1.086       .  S
C263        C264   1.394       .  D
C264       C1014   1.489       .  S
C265        H270   1.088       .  S
C265        C266   1.362       .  D
C266        C278   1.546       .  S
C271        C272   1.536       .  S
C271        C275   1.500       .  S
C271       C1609   1.514       .  S
C271        C438   1.531       .  S
C272        H279   1.086       .  S
C272        C273   1.375       .  D
C273        C274   1.565       .  S
C273        C312   1.492       .  S
C274        C276   1.580       .  S
C274       C1610   1.567       .  S
C274        H280   1.110       .  S
C275        H281   1.078       .  S
C275        C276   1.377       .  D
C276        C285   1.536       .  S
C277       C1603   1.515   1_455  S
C277        H282   1.085       .  S
C277        C278   1.382       .  D
C278       C1606   1.567   1_455  S
C283        C284   1.535       .  S
C283        C289   1.518       .  S
C283        C287   1.519       .  S
C283        C425   1.522       .  S
C284        H291   1.078       .  S
C284        C285   1.365       .  D
C285        C286   1.546       .  S
C286        C290   1.604       .  S
C286        C288   1.576       .  S
C286        H292   1.110       .  S
C287        H293   1.085       .  S
C287        C288   1.375       .  D
C288        C324   1.488       .  S
C289        H294   1.087       .  S
C289        C290   1.379       .  D
C295        C296   1.503       .  S
C295        C301   1.505       .  S
C295        C299   1.546       .  S
C295       C1535   1.519       .  S
C296        H303   1.081       .  S
C296        C297   1.360       .  D
C297        C298   1.584       .  S
C297        C336   1.531       .  S
C298        C302   1.587       .  S
C298        C300   1.559       .  S
C298        H304   1.110       .  S
C299       H1637   1.086       .  S
C299        C300   1.379       .  D
C301        H306   1.086       .  S
C301        C302   1.379       .  D
C302        C309   1.556       .  S
H305       C1631   1.085   1_455  S
C307        C308   1.517       .  S
C307        C313   1.535       .  S
C307        C311   1.518       .  S
C307       C1548   1.521       .  S
C308        H315   1.087       .  S
C308        C309   1.381       .  D
C309        C310   1.607       .  S
C310        C314   1.549       .  S
C310        C312   1.580       .  S
C310        H316   1.110       .  S
C311       H1649   1.086       .  S
C311        C312   1.373       .  D
C313        H318   1.077       .  S
C313        C314   1.365       .  D
C314        C321   1.539       .  S
H317       C1643   1.086       .  S
C319        C320   1.499       .  S
C319        C325   1.511       .  S
C319        C323   1.535       .  S
C320        H327   1.074       .  S
C320        C321   1.377       .  D
C321        C322   1.581       .  S
C322        C326   1.570       .  S
C322        C324   1.561       .  S
C322        H328   1.110       .  S
C323        H329   1.086       .  S
C323        C324   1.375       .  D
C325        H330   1.085       .  S
C325        C326   1.384       .  D
C326        C362   1.548       .  S
C331        C332   1.516       .  S
C331        C337   1.521       .  S
C331       C1001   1.526       .  S
C332        H339   1.086       .  S
C332        C333   1.389       .  D
C333       C1000   1.604       .  S
C334        C338   1.588       .  S
C334        C336   1.535       .  S
C334        C999   1.599   1_545  S
C334        H340   1.110       .  S
C335        C997   1.528   1_545  S
C335        H341   1.076       .  S
C335        C336   1.377       .  D
C337        H342   1.088       .  S
C337       C1004   1.364       .  D
C338       C1003   1.370   1_545  D
C338        C350   1.556       .  S
C343        C344   1.492       .  S
C343        C349   1.508       .  S
C343       C1013   1.547   1_545  S
C343        C860   1.513   1_545  S
C344        H351   1.085       .  S
C344        C345   1.362       .  D
C345        C346   1.592       .  S
C345        C360   1.535       .  S
C346        C350   1.592       .  S
C346        C348   1.549       .  S
C346        H352   1.110       .  S
C347       C1009   1.545       .  S
C347        H353   1.086       .  S
C347       C1014   1.371       .  D
C348       C1013   1.368   1_545  D
C348        C930   1.491   1_545  S
C349       H1020   1.085   1_545  S
C349        C350   1.385       .  D
H354       C1015   1.085       .  S
C355        C356   1.513       .  S
C355        C361   1.513       .  S
C355        C359   1.528       .  S
C356        H363   1.085       .  S
C356        C357   1.393       .  D
C357        C358   1.606       .  S
C358        C362   1.588       .  S
C358        C360   1.536       .  S
C358        H364   1.110       .  S
C359        H365   1.082       .  S
C359        C360   1.372       .  D
C361        H366   1.088       .  S
C361        C362   1.361       .  D
In367       O369   2.143       .  S
In367       O370   2.297       .  S
In367       O374   2.142       .  S
In367       O375   2.328       .  S
In367       O376   2.256       .  S
In367       O379   2.253       .  S
In367      O1044   2.253       .  S
In367      O1038   2.144       .  S
C368        O374   1.273       .  A
C368        O376   1.279       .  A
C368        C420   1.455       .  S
O369        C377   1.267       .  A
O370        C377   1.294       .  A
C371        O378   1.280       .  A
C371        O372   1.276       .  A
C371        C410   1.463       .  S
O372      In1033   2.170   1_545  S
C373        C523   1.541       .  S
C373        O375   1.266       .  A
C373        O379   1.256       .  A
O378      In1033   2.247   1_545  S
In380       O382   2.116       .  S
In380       O383   2.370       .  S
In380       O391   2.299       .  S
In380       O385   2.093       .  S
In380       O388   2.304       .  S
In380       O392   2.175       .  S
In380      O1053   2.122       .  S
In380      O1055   2.284       .  S
C381        O387   1.263       .  A
C381        O389   1.279       .  A
C381        C397   1.453       .  S
O382        C390   1.261       .  A
O383        C390   1.280       .  A
C384        O391   1.283       .  A
C384        O385   1.262       .  A
C384        C436   1.457       .  S
C386        C535   1.522       .  S
C386        O388   1.286       .  A
C386        O392   1.265       .  A
O387      In1046   2.120   1_545  S
O389      In1046   2.289   1_545  S
In393       O395   2.180       .  S
In393       O396   2.266       .  S
In393       O404   2.268       .  S
In393       O398   2.094       .  S
In393       O400   2.113       .  S
In393       O401   2.327       .  S
In393       O402   2.243       .  S
In393       O405   2.249       .  S
C394        O400   1.273       .  A
C394        O402   1.282       .  A
C394        C407   1.445       .  S
O395        C403   1.273       .  A
O396        C403   1.292       .  A
C397        O404   1.288       .  A
C397        O398   1.274       .  A
C399        C547   1.524       .  S
C399        O401   1.266       .  A
C399        O405   1.253       .  A
In406       O408   2.121       .  S
In406       O417   2.261       .  S
In406       O411   2.176       .  S
In406       O418   2.251       .  S
In406      O1741   2.312       .  S
In406      O1745   2.127       .  S
In406      O1746   2.348       .  S
In406      O1747   2.260       .  S
C407        O413   1.276       .  A
C407        O415   1.283       .  A
O408        C416   1.267       .  A
O409      In1738   2.309       .  S
O409       C1748   1.294       .  A
C410        O417   1.277       .  A
C410        O411   1.271       .  A
C412        O414   1.268   1_455  A
C412       O1750   1.256       .  A
O413      In1738   2.116       .  S
O414      In1738   2.334   1_655  S
O415      In1738   2.241       .  S
C416        C559   1.520       .  S
C416       O1741   1.294       .  A
O418       C1744   1.254       .  A
In419       O421   2.149       .  S
In419       O422   2.271       .  S
In419       O430   2.276       .  S
In419       O424   2.115       .  S
In419       O426   2.132       .  S
In419       O427   2.311       .  S
In419       O428   2.252       .  S
In419       O431   2.274       .  S
C420        O426   1.276       .  A
C420        O428   1.287       .  A
O421        C429   1.272       .  A
O422        C429   1.293       .  A
C423        O430   1.283       .  A
C423        O424   1.272       .  A
C423        C433   1.458       .  S
C425        O427   1.263       .  A
C425        O431   1.252       .  A
C429        C583   1.514       .  S
In432       O434   2.194       .  S
In432       O435   2.383       .  S
In432       O439   2.105       .  S
In432       O440   2.306       .  S
In432       O441   2.284       .  S
In432       O444   2.187       .  S
In432      O1775   2.291       .  S
In432      O1769   2.121       .  S
C433        O439   1.270       .  A
C433        O441   1.288       .  A
O434        C442   1.253       .  A
O435        C442   1.275       .  A
C436        O443   1.278       .  A
C436        O437   1.262       .  A
O437      In1764   2.114   1_455  S
C438        O440   1.290       .  A
C438        O444   1.271       .  A
C442        C571   1.542       .  S
O443      In1764   2.303   1_455  S
In445       O447   2.292       .  S
In445       O450   2.112       .  S
In445       O452   2.121       .  S
In445       O454   2.248       .  S
In445       O457   2.172       .  S
In445      O1114   2.306       .  S
In445      O1122   2.251       .  S
In445      O1119   2.280       .  S
C446        O452   1.277       .  A
C446        O454   1.284       .  A
C446        C511   1.454       .  S
O447       C1121   1.256       .  A
O448      In1111   2.301   1_545  S
O448        C455   1.262   1_545  A
C449        O450   1.274       .  A
C449       O1122   1.285       .  A
C449        C459   1.449       .  S
C451       C1261   1.517       .  S
C451        O453   1.293   1_565  A
C451       O1123   1.271       .  A
O453      In1111   2.280   1_545  S
C455        C787   1.530       .  S
C455       O1113   1.256       .  A
O456      In1111   2.266   1_545  S
O456       C1115   1.282       .  A
O457       C1117   1.274       .  A
In458       O460   2.147       .  S
In458       O469   2.253       .  S
In458       O463   2.154       .  S
In458       O465   2.117       .  S
In458       O470   2.262       .  S
In458      O1127   2.311       .  S
In458      O1132   2.338       .  S
In458      O1133   2.254       .  S
C459        O465   1.275       .  A
C459       O1133   1.284       .  A
O460       C1134   1.268       .  A
O461      In1124   2.301       .  S
O461        C468   1.288   1_545  A
C462        O469   1.279       .  A
C462        O463   1.272       .  A
C462        C475   1.457       .  S
C464       C1273   1.532   1_545  S
C464        O466   1.279       .  A
C464       O1136   1.254   1_545  A
O466      In1124   2.378       .  S
O467      In1124   2.282       .  S
O467       C1125   1.287       .  A
C468        C799   1.526       .  S
C468       O1126   1.269       .  A
O470       C1130   1.254       .  A
In471       O473   2.187       .  S
In471       O474   2.317       .  S
In471       O479   2.373       .  S
In471       O480   2.308       .  S
In471       O483   2.116       .  S
In471      O1814   2.303       .  S
In471      O1808   2.108       .  S
In471      O1810   2.116       .  S
C472        O480   1.279       .  A
C472       O1810   1.261       .  A
C472        C488   1.459       .  S
O473        C481   1.265       .  A
O474        C481   1.286       .  A
C475        O482   1.282       .  A
C475        O476   1.276       .  A
O476      In1803   2.148   1_455  S
C477       C1429   1.530       .  S
C477        O479   1.282       .  A
C477        O483   1.259       .  A
O478      In1803   2.134       .  S
O478       C1804   1.273       .  A
C481       C1975   1.533       .  S
O482      In1803   2.245   1_455  S
In484       O486   2.214       .  S
In484       O487   2.339       .  S
In484       O495   2.288       .  S
In484       O492   2.260       .  S
In484       O496   2.175       .  S
In484      O1821   2.096       .  S
In484      O1823   2.128       .  S
In484      O1825   2.267       .  S
C485        O491   1.272       .  A
C485        O493   1.283   1_455  A
C485        C501   1.458       .  S
O486        C494   1.250       .  A
O487        C494   1.269       .  A
C488        O495   1.289       .  A
C488       O1821   1.272       .  A
O489      In1816   2.122       .  S
O489       C1820   1.276       .  A
C490       C1417   1.514       .  S
C490        O492   1.290       .  A
C490        O496   1.273       .  A
O491      In1816   2.106   1_455  S
O493      In1816   2.277       .  S
C494       C1963   1.519       .  S
In497       O499   2.176       .  S
In497       O500   2.305       .  S
In497       O508   2.297       .  S
In497       O502   2.102       .  S
In497       O504   2.115       .  S
In497       O505   2.371       .  S
In497       O506   2.306       .  S
In497       O509   2.118       .  S
C498        O504   1.262       .  A
C498        O506   1.278       .  A
C498        C514   1.459       .  S
O499        C507   1.266       .  A
O500        C507   1.286       .  A
C501        O508   1.285       .  A
C501        O502   1.263       .  A
C503        O505   1.281       .  A
C503        O509   1.260       .  A
C507        C655   1.524       .  S
In510       O512   2.111       .  S
In510       O513   2.365       .  S
In510       O521   2.307       .  S
In510       O515   2.099       .  S
In510       O517   2.133       .  S
In510       O518   2.299       .  S
In510       O519   2.281       .  S
In510       O522   2.162       .  S
C511        O517   1.263       .  A
C511        O519   1.279       .  A
O512        C520   1.260       .  A
O513        C520   1.281       .  A
C514        O521   1.283       .  A
C514        O515   1.262       .  A
C516        O518   1.286       .  A
C516        O522   1.265       .  A
C520        C619   1.527       .  S
C523        C524   1.507       .  S
C523        C527   1.526       .  S
C523       C1195   1.517       .  S
C524        H531   1.086       .  S
C524        C525   1.384       .  D
C525        C526   1.602       .  S
C525        C600   1.500       .  S
C526        C528   1.545       .  S
C526       C1196   1.584       .  S
C526        H532   1.110       .  S
C527        H533   1.075       .  S
C527        C528   1.377       .  D
C528        C585   1.535       .  S
C529       C1189   1.512   1_545  S
C529        H534   1.085       .  S
C529        C530   1.370       .  D
C530       C1192   1.584   1_545  S
C530        C566   1.548       .  S
C535        C536   1.510       .  S
C535        C539   1.551       .  S
C535       C1207   1.498       .  S
C536        H543   1.087       .  S
C536        C537   1.364       .  D
C537        C538   1.580       .  S
C537        C576   1.540       .  S
C538        C540   1.553       .  S
C538       C1208   1.590       .  S
C538        H544   1.110       .  S
C539        H545   1.086       .  S
C539        C540   1.376       .  D
C540        C612   1.498       .  S
C541       C1201   1.504   1_545  S
C541        H546   1.085       .  S
C541        C542   1.387       .  D
C542       C1204   1.585   1_545  S
C542        C549   1.554       .  S
C547        C548   1.519       .  S
C547        C553   1.540       .  S
C547        C551   1.524       .  S
C548        H555   1.088       .  S
C548        C549   1.373       .  D
C549        C550   1.608       .  S
C550        C554   1.544       .  S
C550        C552   1.581       .  S
C550        H556   1.110       .  S
C551        H557   1.086       .  S
C551        C552   1.379       .  D
C552        C657   1.492       .  S
C553        H558   1.075       .  S
C553        C554   1.367       .  D
C554        C561   1.543       .  S
C559        C565   1.511       .  S
C559        C563   1.529       .  S
C559       C1892   1.497       .  S
C560       C1891   1.500       .  S
C560        H567   1.077       .  S
C560        C561   1.374       .  D
C561       C1894   1.586       .  S
C562        C566   1.574       .  S
C562        C564   1.571       .  S
C562       C1893   1.589       .  S
C562        H568   1.110       .  S
C563       H1901   1.086       .  S
C563        C564   1.380       .  D
C564       C1968   1.490       .  S
C565        H570   1.085       .  S
C565        C566   1.374       .  D
H569       C1895   1.086       .  S
C571        C572   1.516       .  S
C571        C577   1.522       .  S
C571       C1907   1.523       .  S
C572        H579   1.086       .  S
C572        C573   1.392       .  D
C573        C574   1.605       .  S
C573       C1977   1.499       .  S
C574        C578   1.588       .  S
C574       C1908   1.540       .  S
C574        H580   1.110       .  S
C575       C1903   1.527   1_455  S
C575        H581   1.085       .  S
C575        C576   1.369       .  D
C576       C1906   1.542   1_455  S
C577        H582   1.088       .  S
C577        C578   1.366       .  D
C578        C590   1.556       .  S
C583        C584   1.504       .  S
C583        C589   1.502       .  S
C583        C587   1.547       .  S
C584        H591   1.083       .  S
C584        C585   1.364       .  D
C585        C586   1.583       .  S
C586        C590   1.587       .  S
C586        C588   1.545       .  S
C586        H592   1.110       .  S
C587        H593   1.086       .  S
C587        C588   1.373       .  D
C588        C624   1.483       .  S
C589        H594   1.084       .  S
C589        C590   1.382       .  D
C595        C596   1.498       .  S
C595        C601   1.507       .  S
C595        C599   1.555       .  S
C595       C1117   1.524       .  S
C596        H603   1.085       .  S
C596        C597   1.384       .  D
C597        C598   1.593       .  S
C597        C614   1.556       .  S
C598        C602   1.580       .  S
C598        C600   1.551       .  S
C598        H604   1.110       .  S
C599        H605   1.085       .  S
C599        C600   1.376       .  D
C601        H606   1.087       .  S
C601        C602   1.363       .  D
C602        C621   1.536       .  S
C607        C608   1.525       .  S
C607        C613   1.518       .  S
C607        C611   1.511       .  S
C607       C1130   1.544       .  S
C608        H615   1.072       .  S
C608        C609   1.377       .  D
C609        C610   1.545       .  S
C609        C648   1.539       .  S
C610        C614   1.594       .  S
C610        C612   1.598       .  S
C610        H616   1.110       .  S
C611       H1283   1.086       .  S
C611        C612   1.386       .  D
C613        H618   1.087       .  S
C613        C614   1.370       .  D
H617       C1277   1.086   1_545  S
C619        C620   1.525       .  S
C619        C625   1.513       .  S
C619        C623   1.508       .  S
C620        H627   1.085       .  S
C620        C621   1.370       .  D
C621        C622   1.541       .  S
C622        C626   1.579       .  S
C622        C624   1.605       .  S
C622        H628   1.110       .  S
C623        H629   1.086       .  S
C623        C624   1.393       .  D
C625        H630   1.088       .  S
C625        C626   1.363       .  D
C626        C662   1.542       .  S
C631        C632   1.536   1_655  S
C631        C637   1.519       .  S
C631       C1967   1.519       .  S
C631       C1826   1.524       .  S
C632        H639   1.075       .  S
C632        C633   1.366       .  D
C633        C634   1.545       .  S
C633        C660   1.537       .  S
C634        C638   1.603       .  S
C634        C636   1.579       .  S
C634        H640   1.110       .  S
C635       C1963   1.525       .  S
C635        H641   1.086       .  S
C635       C1968   1.381       .  D
C636       C1967   1.376   1_455  D
C636       C1896   1.489       .  S
C637        H642   1.087       .  S
C637        C638   1.379   1_655  D
C638        C650   1.553       .  S
C643        C649   1.503       .  S
C643        C647   1.506       .  S
C643       C1976   1.545   1_455  S
C643       C1813   1.522   1_455  S
C644       C1975   1.551       .  S
C644        H651   1.086       .  S
C644       C1977   1.379       .  D
C645        C646   1.559       .  S
C645       C1976   1.376   1_455  D
C645       C1905   1.495   1_455  S
C646        C650   1.586       .  S
C646        C648   1.584       .  S
C646        H652   1.110       .  S
C647        H653   1.081       .  S
C647        C648   1.364       .  D
C649       H1986   1.086   1_455  S
C649        C650   1.382       .  D
H654       C1981   1.085       .  S
C655        C656   1.535       .  S
C655        C661   1.506       .  S
C655        C659   1.498       .  S
C656        H663   1.086       .  S
C656        C657   1.375       .  D
C657        C658   1.562       .  S
C658        C662   1.569       .  S
C658        C660   1.585       .  S
C658        H664   1.110       .  S
C659        H665   1.074       .  S
C659        C660   1.377       .  D
C661        H666   1.085       .  S
C661        C662   1.380       .  D
C667        C668   1.526       .  S
C667        C673   1.524       .  S
C667        C671   1.516       .  S
C667        C817   1.539       .  S
C668        H675   1.066       .  S
C668        C669   1.372       .  D
C669        C670   1.541       .  S
C669        C686   1.534       .  S
C670        C674   1.598       .  S
C670        C672   1.605       .  S
C670        H676   1.110   1_556  S
C671        H677   1.086       .  S
C671        C672   1.388       .  D
C672        C744   1.504   1_556  S
C673        H678   1.088       .  S
C673        C674   1.368       .  D
C674        C729   1.562       .  S
C679        C680   1.503       .  S
C679        C685   1.503       .  S
C679        C683   1.549       .  S
C679        C847   1.525       .  S
C680        H687   1.086       .  S
C680        C681   1.378       .  D
C681        C682   1.578       .  S
C681        C698   1.544       .  S
C682        C686   1.579       .  S
C682        C684   1.552       .  S
C682        H688   1.110   1_556  S
C683        H689   1.085       .  S
C683        C684   1.381       .  D
C684        C777   1.493   1_556  S
C685        H690   1.075       .  S
C685        C686   1.367       .  D
C691        C692   1.537       .  S
C691        C697   1.519       .  S
C692        H699   1.074       .  S
C692        C693   1.369       .  D
C693        C694   1.541       .  S
C693        C708   1.539       .  S
C694        C698   1.596       .  S
C694        H700   1.110   1_556  S
C695        H701   1.086       .  S
C695        C696   1.381       .  D
C696        C804   1.490   1_556  S
C697        H702   1.088       .  S
C697        C698   1.379       .  D
C703        C704   1.538       .  S
C703        C830   1.528       .  S
C704        H711   1.086       .  S
C704        C705   1.378       .  D
C705        C792   1.494   1_556  S
C706        C710   1.580       .  S
C706        C708   1.590       .  S
C706        H712   1.110       .  S
C707        H713   1.077       .  S
C707        C708   1.372       .  D
C709        H714   1.086       .  S
C709        C710   1.378       .  D
C710        C722   1.553       .  S
C715        C716   1.526       .  S
C715        C721   1.521       .  S
C715        C719   1.511       .  S
C715       C2205   1.545       .  S
C716        H723   1.078       .  S
C716        C717   1.376       .  D
C717        C718   1.540       .  S
C717        C734   1.529       .  S
C718        C722   1.583       .  S
C718        C720   1.601   1_556  S
C718        H724   1.110   1_556  S
C719       H2057   1.086       .  S
C719        C720   1.384   1_556  D
C720       C2088   1.497       .  S
C721        H726   1.086       .  S
C721        C722   1.370       .  D
H725       C2051   1.085       .  S
C727        C728   1.510       .  S
C727        C733   1.498       .  S
C727        C731   1.547       .  S
C727       C2218   1.517       .  S
C728        H735   1.083       .  S
C728        C729   1.386       .  D
C729        C730   1.587       .  S
C730        C734   1.585       .  S
C730        C732   1.547       .  S
C730        H736   1.110       .  S
C731       H2069   1.086       .  S
C731        C732   1.371       .  D
C732       C2097   1.484   1_556  S
C733        H738   1.083       .  S
C733        C734   1.363       .  D
H737       C2063   1.086       .  S
C739        C740   1.509       .  S
C739        C745   1.500       .  S
C739        C743   1.550       .  S
C739       C1182   1.523       .  S
C740        H747   1.084       .  S
C740        C741   1.360       .  D
C741        C742   1.589       .  S
C741        C780   1.544       .  S
C742        C746   1.596       .  S
C742        C744   1.560       .  S
C742        H748   1.110       .  S
C743        H749   1.086       .  S
C743        C744   1.379       .  D
C745        H750   1.085       .  S
C745        C746   1.380       .  D
C746        C789   1.560       .  S
C751        C752   1.505       .  S
C751        C757   1.495       .  S
C751       C2087   1.548   1_455  S
C751       C2488   1.515   1_455  S
C752        H759   1.086       .  S
C752        C753   1.361       .  D
C753        C754   1.582       .  S
C753        C768   1.535       .  S
C754        C758   1.588       .  S
C754        C756   1.551   1_455  S
C754        H760   1.110       .  S
C755       C2083   1.550       .  S
C755        H761   1.086       .  S
C755       C2088   1.372       .  D
C756       C2087   1.373       .  D
C756       C2052   1.494       .  S
C757        H762   1.084       .  S
C757        C758   1.383       .  D
C758        C782   1.544       .  S
C763       C2096   1.508       .  S
C763        C769   1.515   1_655  S
C763        C767   1.527   1_655  S
C763       C2475   1.528       .  S
C764       C2095   1.506       .  S
C764        H771   1.086       .  S
C764       C2097   1.391       .  D
C765        C766   1.602       .  S
C765       C2096   1.391   1_455  D
C765       C2064   1.488   1_454  S
C766        C770   1.585       .  S
C766        C768   1.538       .  S
C766        H772   1.110       .  S
C767        H773   1.082   1_455  S
C767        C768   1.373       .  D
C769        H774   1.088       .  S
C769        C770   1.365       .  D
C770        C806   1.547       .  S
C775        C776   1.516       .  S
C775        C781   1.515       .  S
C775        C779   1.528       .  S
C775       C1169   1.550       .  S
C776        H783   1.086       .  S
C776        C777   1.388       .  D
C777        C778   1.594       .  S
C778        C782   1.584       .  S
C778        C780   1.546       .  S
C778        H784   1.110       .  S
C779        H785   1.077       .  S
C779        C780   1.381       .  D
C781        H786   1.086       .  S
C781        C782   1.366       .  D
C787        C788   1.518       .  S
C787        C793   1.533       .  S
C787        C791   1.522       .  S
C788        H795   1.086       .  S
C788        C789   1.382       .  D
C789        C790   1.607       .  S
C790        C794   1.551       .  S
C790        C792   1.581       .  S
C790        H796   1.110       .  S
C791        C792   1.375       .  D
C793        H798   1.078       .  S
C793        C794   1.365       .  D
C794        C801   1.544       .  S
C799        C800   1.497       .  S
C799        C805   1.510       .  S
C799        C803   1.533       .  S
C800        H807   1.078       .  S
C800        C801   1.379       .  D
C801        C802   1.589       .  S
C802        C806   1.572       .  S
C802        C804   1.564       .  S
C802        H808   1.110       .  S
C803        C804   1.373       .  D
C805        H810   1.085       .  S
C805        C806   1.382       .  D
In811       O813   2.168       .  S
In811       O814   2.298       .  S
In811       O822   2.264       .  S
In811       O816   2.157       .  S
In811       O818   2.091       .  S
In811       O819   2.366       .  S
In811       O820   2.273       .  S
In811       O823   2.216       .  S
C812        O818   1.272       .  A
C812        O820   1.287       .  A
C812        C877   1.450       .  S
O813        C821   1.271       .  A
O814        C821   1.291       .  A
C815        O822   1.278       .  A
C815        O816   1.270       .  A
C815        C841   1.459       .  S
C817        O819   1.275       .  A
C817        O823   1.253       .  A
C821        C985   1.525       .  S
In824       O826   2.252       .  S
In824       O827   2.350       .  S
In824       O835   2.247       .  S
In824       O831   2.108       .  S
In824       O832   2.305       .  S
In824       O833   2.262       .  S
In824       O836   2.169       .  S
C825        O831   1.274       .  A
C825        O833   1.286       .  A
C825        C854   1.453       .  S
O826        C834   1.255       .  A
O827        C834   1.271       .  A
C828        O829   1.272       .  A
C828        C867   1.459       .  S
C830        O832   1.293       .  A
C830        O836   1.270       .  A
C834        C997   1.547       .  S
In837       O839   2.143       .  S
In837       O840   2.307       .  S
In837       O848   2.249       .  S
In837       O842   2.148       .  S
In837       O844   2.135       .  S
In837       O845   2.327       .  S
In837       O846   2.246       .  S
In837       O849   2.255       .  S
C838        O844   1.273       .  A
C838        O846   1.279       .  A
C838        C851   1.449       .  S
O839        C847   1.267       .  A
O840        C847   1.293       .  A
C841        O848   1.282       .  A
C841        O842   1.275       .  A
C843       C1021   1.543       .  S
C843        O845   1.266       .  A
C843        O849   1.257       .  A
In850       O852   2.176   1_565  S
In850       O853   2.256       .  S
In850       O861   2.266       .  S
In850       O858   2.339       .  S
In850       O862   2.220       .  S
C851        O857   1.275       .  A
C851        O859   1.287       .  A
O852        C860   1.273   1_545  A
O853        C860   1.291       .  A
C854        O861   1.280       .  A
C856        O858   1.269       .  A
C856        O862   1.251       .  A
In863       O865   2.253       .  S
In863      O2198   2.335       .  S
In863       O874   2.256       .  S
In863       O868   2.148       .  S
In863       O870   2.145       .  S
In863      O2203   2.304       .  S
In863      O2204   2.257       .  S
In863       O875   2.143       .  S
C864       O2202   1.265   1_455  A
C864        O872   1.279       .  A
C864        C880   1.455       .  S
O865       C2205   1.256       .  A
O866      In2195   2.370       .  S
O866        C873   1.279   1_455  A
C867        O874   1.283       .  A
C867        O868   1.275       .  A
C869       C2293   1.529       .  S
C869        O871   1.287   1_655  A
C869       O2207   1.266       .  A
O870       C2196   1.273       .  A
O871      In2195   2.310       .  S
O872      In2195   2.282       .  S
C873       C2047   1.530       .  S
C873       O2197   1.257       .  A
O875       C2201   1.267       .  A
In876       O878   2.175       .  S
In876      O2211   2.270       .  S
In876      O2219   2.252       .  S
In876       O881   2.126       .  S
In876       O883   2.101       .  S
In876      O2216   2.334       .  S
In876       O885   2.271       .  S
In876       O888   2.247       .  S
C877        O883   1.270       .  A
C877        O885   1.281       .  A
O878       C2218   1.273       .  A
O879      In2208   2.275       .  S
O879        C886   1.292   1_455  A
C880        O887   1.288       .  A
C880       O2213   1.275   1_455  A
O881       C2212   1.276       .  A
C882       C2305   1.523   1_455  S
C882        O884   1.265       .  A
C882       O2220   1.252       .  A
O884      In2208   2.325       .  S
C886       C2059   1.521       .  S
C886       O2210   1.273       .  A
O887      In2208   2.265       .  S
O888       C2214   1.250       .  A
C889        C890   1.541       .  S
C889        C895   1.505       .  S
C889       C1043   1.520       .  S
C890        H897   1.086       .  S
C890        C891   1.375       .  D
C891        C892   1.563       .  S
C891        C999   1.496       .  S
C892        C896   1.590       .  S
C892        H898   1.110       .  S
C893        H899   1.081       .  S
C893        C894   1.365       .  D
C894        C903   1.538       .  S
C895        H900   1.086       .  S
C895        C896   1.381       .  D
C896        C956   1.560       .  S
C901       C2234   1.524   1_455  S
C901        C907   1.514       .  S
C901        C905   1.513   1_455  S
C901       C1078   1.546       .  S
C902       C2233   1.524       .  S
C902        H909   1.074       .  S
C902        C903   1.375       .  D
C903        C904   1.545       .  S
C904       C2240   1.592       .  S
C904        C906   1.598       .  S
C904        H910   1.110       .  S
C905        H911   1.086       .  S
C905       C2238   1.387       .  D
C906       C2237   1.387       .  D
C906        C966   1.494       .  S
C907        H912   1.086       .  S
C907        C908   1.369       .  D
C908       C2236   1.589   1_455  S
C908        C915   1.551       .  S
C913        C914   1.498       .  S
C913        C919   1.504       .  S
C913        C917   1.547       .  S
C913       C1069   1.516       .  S
C914        H921   1.085       .  S
C914        C915   1.383       .  D
C915        C916   1.591       .  S
C916        C920   1.581       .  S
C916        C918   1.553       .  S
C916        H922   1.110       .  S
C917        H923   1.086       .  S
C917        C918   1.373       .  D
C918       C1023   1.491       .  S
C919        H924   1.086       .  S
C919        C920   1.361       .  D
C920        C927   1.537       .  S
C925        C931   1.515       .  S
C925        C929   1.512       .  S
C925       C1056   1.530       .  S
C926        H933   1.085       .  S
C926        C927   1.370       .  D
C928        C932   1.589       .  S
C928        C930   1.610       .  S
C928        H934   1.110       .  S
C929        H935   1.086       .  S
C929        C930   1.392       .  D
C931        H936   1.088       .  S
C931        C932   1.363       .  D
C932        C944   1.553       .  S
C937        C938   1.533       .  S
C937       C2275   1.513       .  S
C937        C941   1.499       .  S
C937       C1104   1.527       .  S
C938        H945   1.086       .  S
C938        C939   1.374       .  D
C939        C940   1.563       .  S
C939        C978   1.488       .  S
C940       C2276   1.568       .  S
C940        C942   1.582       .  S
C940        H946   1.110       .  S
C941        H947   1.072       .  S
C941        C942   1.378       .  D
C942        C951   1.539       .  S
C943       C2269   1.511   1_455  S
C943        H948   1.085       .  S
C943        C944   1.383       .  D
C944       C2272   1.575   1_455  S
C949        C950   1.533       .  S
C949        C955   1.518       .  S
C949        C953   1.518       .  S
C949       C1091   1.524       .  S
C950        H957   1.073       .  S
C950        C951   1.366       .  D
C951        C952   1.549       .  S
C952        C956   1.608       .  S
C952        C954   1.584       .  S
C952        H958   1.110       .  S
C953        H959   1.086       .  S
C953        C954   1.375       .  D
C954        C990   1.496       .  S
C955        H960   1.087       .  S
C955        C956   1.380       .  D
C961        C962   1.507       .  S
C961        C967   1.507       .  S
C961        C965   1.545       .  S
C961       C2201   1.523       .  S
C962        H969   1.083       .  S
C962        C963   1.363       .  D
C963        C964   1.583       .  S
C963       C1002   1.537       .  S
C964        C968   1.586       .  S
C964        C966   1.558       .  S
C964        H970   1.110       .  S
C965       H2303   1.086       .  S
C965        C966   1.378       .  D
C967        H972   1.085       .  S
C967        C968   1.383       .  D
C968        C975   1.558       .  S
H971       C2297   1.086   1_455  S
C973        C974   1.518       .  S
C973        C979   1.537       .  S
C973        C977   1.520       .  S
C973       C2214   1.523       .  S
C974        H981   1.087       .  S
C974        C975   1.376       .  D
C975        C976   1.608       .  S
C976        C980   1.544       .  S
C976        C978   1.581       .  S
C976        H982   1.110       .  S
C977       H2315   1.086       .  S
C977        C978   1.378       .  D
C979        H984   1.076       .  S
C979        C980   1.366       .  D
C980        C987   1.543       .  S
H983       C2309   1.085   1_455  S
C985        C986   1.497       .  S
C985        C991   1.510       .  S
C985        C989   1.537       .  S
C986        H993   1.075       .  S
C986        C987   1.374       .  D
C987        C988   1.587       .  S
C988        C992   1.576       .  S
C988        C990   1.568       .  S
C988        H994   1.110       .  S
C989        H995   1.086       .  S
C989        C990   1.376       .  D
C991        H996   1.086       .  S
C991        C992   1.379       .  D
C992       C1028   1.548       .  S
C997        C998   1.517       .  S
C997       C1003   1.525       .  S
C998       H1005   1.086       .  S
C998        C999   1.387       .  D
C1000      C1004   1.594       .  S
C1000      C1002   1.543       .  S
C1000      H1006   1.110       .  S
C1001      H1007   1.078       .  S
C1001      C1002   1.376       .  D
C1003      H1008   1.088       .  S
C1004      C1016   1.561       .  S
C1009      C1010   1.500       .  S
C1009      C1015   1.505       .  S
C1010      H1017   1.084       .  S
C1010      C1011   1.360       .  D
C1011      C1012   1.590       .  S
C1011      C1026   1.537       .  S
C1012      C1016   1.591       .  S
C1012      C1014   1.551       .  S
C1012      H1018   1.110       .  S
C1013      H1019   1.086       .  S
C1015      C1016   1.385       .  D
C1021      C1022   1.509       .  S
C1021      C1027   1.517       .  S
C1021      C1025   1.527       .  S
C1022      H1029   1.086       .  S
C1022      C1023   1.384       .  D
C1023      C1024   1.597       .  S
C1024      C1028   1.584       .  S
C1024      C1026   1.542       .  S
C1024      H1030   1.110       .  S
C1025      H1031   1.077       .  S
C1025      C1026   1.380       .  D
C1027      H1032   1.086       .  S
C1027      C1028   1.369       .  D
In1033     O1035   2.135       .  S
In1033     O1036   2.295       .  S
In1033     O1040   2.143       .  S
In1033     O1041   2.314       .  S
In1033     O1042   2.263       .  S
In1033     O1045   2.268   1_565  S
C1034      O1040   1.274       .  A
C1034      O1042   1.281       .  A
C1034      C1086   1.459       .  S
O1035      C1043   1.267       .  A
O1036      C1043   1.294       .  A
C1037      O1044   1.283       .  A
C1037      O1038   1.275       .  A
C1037      C1076   1.458       .  S
C1039      C1189   1.546       .  S
C1039      O1041   1.264       .  A
C1039      O1045   1.259   1_565  A
In1046     O1048   2.126       .  S
In1046     O1049   2.366       .  S
In1046     O1057   2.301       .  S
In1046     O1051   2.110       .  S
In1046     O1054   2.302       .  S
In1046     O1058   2.177       .  S
C1047      O1053   1.262       .  A
C1047      O1055   1.279       .  A
C1047      C1063   1.452       .  S
O1048      C1056   1.260       .  A
O1049      C1056   1.280       .  A
C1050      O1057   1.284       .  A
C1050      O1051   1.264       .  A
C1050      C1102   1.461       .  S
C1052      C1201   1.524       .  S
C1052      O1054   1.287       .  A
C1052      O1058   1.265       .  A
In1059     O1061   2.141       .  S
In1059     O1062   2.281       .  S
In1059     O1070   2.255       .  S
In1059     O1064   2.113       .  S
In1059     O1066   2.140       .  S
In1059     O1067   2.308       .  S
In1059     O1068   2.242       .  S
In1059     O1071   2.276       .  S
C1060      O1066   1.274       .  A
C1060      O1068   1.281       .  A
C1060      C1073   1.450       .  S
O1061      C1069   1.271       .  A
O1062      C1069   1.294       .  A
C1063      O1070   1.284       .  A
C1063      O1064   1.276       .  A
C1065      C1213   1.528       .  S
C1065      O1067   1.264       .  A
C1065      O1071   1.255       .  A
In1072     O1074   2.150       .  S
In1072     O2407   2.297       .  S
In1072     O1083   2.257       .  S
In1072     O1077   2.154       .  S
In1072     O2411   2.126       .  S
In1072     O2412   2.347       .  S
In1072     O2413   2.266       .  S
In1072     O1084   2.248       .  S
C1073      O1079   1.276       .  A
C1073      O1081   1.282       .  A
O1074      C1082   1.270       .  A
O1075     In2404   2.297       .  S
O1075      C2414   1.294       .  A
C1076      O1083   1.278       .  A
C1076      O1077   1.272       .  A
C1078      O1080   1.266   1_455  A
C1078      O2416   1.257       .  A
O1079     In2404   2.139       .  S
O1080     In2404   2.327   1_655  S
O1081     In2404   2.235       .  S
C1082      C1225   1.522       .  S
C1082      O2407   1.293       .  A
O1084      C2410   1.255       .  A
In1085     O1087   2.166       .  S
In1085     O1088   2.264       .  S
In1085     O1096   2.289       .  S
In1085     O1090   2.117       .  S
In1085     O1092   2.131       .  S
In1085     O1093   2.319       .  S
In1085     O1094   2.262       .  S
In1085     O1097   2.273       .  S
C1086      O1092   1.276       .  A
C1086      O1094   1.289       .  A
O1087      C1095   1.275       .  A
O1088      C1095   1.292       .  A
C1089      O1096   1.283       .  A
C1089      O1090   1.272       .  A
C1089      C1099   1.464       .  S
C1091      O1093   1.264       .  A
C1091      O1097   1.251       .  A
C1095      C1249   1.517       .  S
In1098     O1100   2.118       .  S
In1098     O1101   2.382       .  S
In1098     O2441   2.314       .  S
In1098     O2435   2.129       .  S
In1098     O1105   2.106       .  S
In1098     O1106   2.309       .  S
In1098     O1107   2.309       .  S
In1098     O1110   2.176       .  S
C1099      O1105   1.262       .  A
C1099      O1107   1.286       .  A
O1100      C1108   1.259       .  A
O1101      C1108   1.282       .  A
C1102      O1109   1.279       .  A
C1102      O1103   1.263       .  A
O1103     In2430   2.123   1_455  S
C1104      O1106   1.286       .  A
C1104      O1110   1.266       .  A
C1108      C1237   1.536       .  S
O1109     In2430   2.301   1_455  S
In1111     O1113   2.290       .  S
In1111     O1116   2.110       .  S
In1111     O1118   2.145       .  S
In1111     O1120   2.233       .  S
In1111     O1123   2.151       .  S
C1112      O1118   1.277       .  A
C1112      O1120   1.283       .  A
C1112      C1177   1.452       .  S
O1114      C1121   1.261       .  A
C1115      O1116   1.273   1_545  A
C1115      C1125   1.453       .  S
C1117      O1119   1.292       .  A
In1124     O1126   2.183   1_545  S
In1124     O1135   2.300   1_545  S
In1124     O1129   2.119   1_545  S
In1124     O1131   2.098   1_545  S
In1124     O1136   2.153   1_545  S
C1125      O1131   1.267   1_545  A
O1127      C1134   1.294       .  A
C1128      O1135   1.278       .  A
C1128      O1129   1.264       .  A
C1128      C1141   1.458       .  S
C1130      O1132   1.268       .  A
In1137     O1139   2.162       .  S
In1137     O1140   2.300       .  S
In1137     O2480   2.294       .  S
In1137     O2474   2.116       .  S
In1137     O2476   2.121       .  S
In1137     O1145   2.365       .  S
In1137     O1146   2.299       .  S
In1137     O1149   2.110       .  S
C1138      O2476   1.262       .  A
C1138      O1146   1.279       .  A
C1138      C1154   1.457       .  S
O1139      C1147   1.265       .  A
O1140      C1147   1.287       .  A
C1141      O1148   1.285       .  A
C1141      O1142   1.263       .  A
O1142     In2469   2.096   1_455  S
C1143      C2095   1.524       .  S
C1143      O1145   1.280       .  A
C1143      O1149   1.258       .  A
O1144     In2469   2.125       .  S
O1144      C2470   1.263       .  A
C1147      C2641   1.519       .  S
O1148     In2469   2.302   1_455  S
In1150     O1152   2.248       .  S
In1150     O1153   2.336       .  S
In1150     O1161   2.278       .  S
In1150     O2487   2.105       .  S
In1150     O2489   2.125       .  S
In1150     O1158   2.269       .  S
In1150     O2491   2.285       .  S
In1150     O1162   2.179       .  S
C1151      O1157   1.272       .  A
C1151      O1159   1.283   1_455  A
C1151      C1167   1.457       .  S
O1152      C1160   1.249       .  A
O1153      C1160   1.268       .  A
C1154      O1161   1.289       .  A
C1154      O2487   1.275       .  A
O1155     In2482   2.110       .  S
O1155      C2486   1.276       .  A
C1156      C2083   1.521       .  S
C1156      O1158   1.291       .  A
C1156      O1162   1.274       .  A
O1157     In2482   2.126   1_455  S
O1159     In2482   2.268       .  S
C1160      C2629   1.522       .  S
In1163     O1165   2.157       .  S
In1163     O1166   2.302       .  S
In1163     O1174   2.258       .  S
In1163     O1168   2.125       .  S
In1163     O1170   2.149       .  S
In1163     O1171   2.332       .  S
In1163     O1172   2.237       .  S
In1163     O1175   2.267       .  S
C1164      O1170   1.275       .  A
C1164      O1172   1.280       .  A
C1164      C1180   1.452       .  S
O1165      C1173   1.270       .  A
O1166      C1173   1.294       .  A
C1167      O1174   1.284       .  A
C1167      O1168   1.276       .  A
C1169      O1171   1.265       .  A
C1169      O1175   1.258       .  A
C1173      C1321   1.526       .  S
In1176     O1178   2.264       .  S
In1176     O1179   2.329       .  S
In1176     O1187   2.239       .  S
In1176     O1181   2.145       .  S
In1176     O1183   2.150       .  S
In1176     O1184   2.305       .  S
In1176     O1185   2.239       .  S
In1176     O1188   2.141       .  S
C1177      O1183   1.274       .  A
C1177      O1185   1.279       .  A
O1178      C1186   1.258       .  A
O1179      C1186   1.267       .  A
C1180      O1187   1.281       .  A
C1180      O1181   1.275       .  A
C1182      O1184   1.293       .  A
C1182      O1188   1.266       .  A
C1186      C1285   1.551       .  S
C1189      C1190   1.509       .  S
C1189      C1193   1.523       .  S
C1190      H1197   1.086       .  S
C1190      C1191   1.383       .  D
C1191      C1192   1.597       .  S
C1191      C1266   1.491       .  S
C1192      C1194   1.553       .  S
C1192      H1198   1.110       .  S
C1193      H1199   1.077       .  S
C1193      C1194   1.377       .  D
C1194      C1251   1.539       .  S
C1195      H1200   1.086       .  S
C1195      C1196   1.368       .  D
C1196      C1232   1.546       .  S
C1201      C1202   1.507       .  S
C1201      C1205   1.546       .  S
C1202      H1209   1.085       .  S
C1202      C1203   1.365       .  D
C1203      C1204   1.578       .  S
C1203      C1242   1.535       .  S
C1204      C1206   1.557       .  S
C1204      H1210   1.110       .  S
C1205      H1211   1.086       .  S
C1205      C1206   1.374       .  D
C1206      C1278   1.495       .  S
C1207      H1212   1.085       .  S
C1207      C1208   1.383       .  D
C1208      C1215   1.549       .  S
C1213      C1214   1.519       .  S
C1213      C1219   1.536       .  S
C1213      C1217   1.523       .  S
C1214      H1221   1.087       .  S
C1214      C1215   1.378       .  D
C1215      C1216   1.599       .  S
C1216      C1220   1.542       .  S
C1216      C1218   1.576       .  S
C1216      H1222   1.110       .  S
C1217      H1223   1.086       .  S
C1217      C1218   1.377       .  D
C1218      C1323   1.487       .  S
C1219      H1224   1.075       .  S
C1219      C1220   1.369       .  D
C1220      C1227   1.540       .  S
C1225      C2558   1.497       .  S
C1225      C1231   1.516       .  S
C1225      C1229   1.533       .  S
C1226      C2557   1.494       .  S
C1226      H1233   1.077       .  S
C1226      C1227   1.373       .  D
C1227      C2560   1.591       .  S
C1228      C2559   1.585       .  S
C1228      C1232   1.569       .  S
C1228      C1230   1.566       .  S
C1228      H1234   1.110       .  S
C1229      H2567   1.086       .  S
C1229      C1230   1.377       .  D
C1230      C2634   1.489       .  S
C1231      H1236   1.086       .  S
C1231      C1232   1.379       .  D
H1235      C2561   1.086       .  S
C1237      C1238   1.516       .  S
C1237      C1243   1.519       .  S
C1237      C2573   1.526       .  S
C1238      H1245   1.085       .  S
C1238      C1239   1.395       .  D
C1239      C1240   1.605       .  S
C1239      C2643   1.494       .  S
C1240      C1244   1.584       .  S
C1240      C2574   1.536       .  S
C1240      H1246   1.110       .  S
C1241      C2569   1.529   1_455  S
C1241      H1247   1.082       .  S
C1241      C1242   1.368       .  D
C1242      C2572   1.540   1_455  S
C1243      H1248   1.088       .  S
C1243      C1244   1.367       .  D
C1244      C1256   1.555       .  S
C1249      C1250   1.498       .  S
C1249      C1255   1.502       .  S
C1249      C1253   1.552       .  S
C1250      H1257   1.084       .  S
C1250      C1251   1.365       .  D
C1251      C1252   1.590       .  S
C1252      C1256   1.590       .  S
C1252      C1254   1.550       .  S
C1252      H1258   1.110       .  S
C1253      H1259   1.086       .  S
C1253      C1254   1.374       .  D
C1254      C1290   1.498       .  S
C1255      H1260   1.085       .  S
C1255      C1256   1.381       .  D
C1261      C1262   1.503       .  S
C1261      C1267   1.499       .  S
C1261      C1265   1.548       .  S
C1262      H1269   1.085       .  S
C1262      C1263   1.382       .  D
C1263      C1264   1.594       .  S
C1263      C1280   1.566       .  S
C1264      C1268   1.588       .  S
C1264      C1266   1.554       .  S
C1264      H1270   1.110       .  S
C1265      H1271   1.086   1_565  S
C1265      C1266   1.374       .  D
C1267      H1272   1.084       .  S
C1267      C1268   1.362       .  D
C1268      C1287   1.535       .  S
C1273      C1274   1.524       .  S
C1273      C1279   1.518       .  S
C1273      C1277   1.509       .  S
C1274      H1281   1.081       .  S
C1274      C1275   1.370       .  D
C1275      C1276   1.547       .  S
C1275      C1314   1.541       .  S
C1276      C1280   1.599       .  S
C1276      C1278   1.611       .  S
C1276      H1282   1.110       .  S
C1277      C1278   1.391       .  D
C1279      H1284   1.088   1_565  S
C1279      C1280   1.367       .  D
C1285      C1286   1.525       .  S
C1285      C1291   1.517       .  S
C1285      C1289   1.514       .  S
C1286      H1293   1.079       .  S
C1286      C1287   1.379       .  D
C1287      C1288   1.545       .  S
C1288      C1292   1.582       .  S
C1288      C1290   1.600       .  S
C1288      H1294   1.110       .  S
C1289      H1295   1.086       .  S
C1289      C1290   1.386       .  D
C1291      H1296   1.085       .  S
C1291      C1292   1.368       .  D
C1292      C1328   1.550       .  S
C1297      C1298   1.536   1_655  S
C1297      C1303   1.519       .  S
C1297      C2633   1.522       .  S
C1297      C2492   1.525       .  S
C1298      H1305   1.078       .  S
C1298      C1299   1.367       .  D
C1299      C1300   1.548       .  S
C1299      C1326   1.544       .  S
C1300      C1304   1.606       .  S
C1300      C1302   1.580       .  S
C1300      H1306   1.110       .  S
C1301      C2629   1.521       .  S
C1301      H1307   1.086       .  S
C1301      C2634   1.378       .  D
C1302      C2633   1.377   1_455  D
C1302      C2562   1.490       .  S
C1303      H1308   1.087       .  S
C1303      C1304   1.378   1_655  D
C1304      C1316   1.555       .  S
C1309      C2642   1.548   1_455  S
C1309      C1315   1.500       .  S
C1309      C1313   1.508       .  S
C1309      C2479   1.524   1_455  S
C1310      C2641   1.547       .  S
C1310      H1317   1.086       .  S
C1310      C2643   1.375       .  D
C1311      C1312   1.561       .  S
C1311      C2642   1.376   1_455  D
C1311      C2571   1.500   1_455  S
C1312      C1316   1.590       .  S
C1312      C1314   1.582       .  S
C1312      H1318   1.110       .  S
C1313      H1319   1.085       .  S
C1313      C1314   1.366       .  D
C1315      H2652   1.085   1_455  S
C1315      C1316   1.383       .  D
H1320      C2647   1.085       .  S
C1321      C1322   1.532       .  S
C1321      C1327   1.515       .  S
C1321      C1325   1.496       .  S
C1322      H1329   1.086       .  S
C1322      C1323   1.376       .  D
C1323      C1324   1.563       .  S
C1324      C1328   1.573       .  S
C1324      C1326   1.590       .  S
C1324      H1330   1.110       .  S
C1325      H1331   1.076       .  S
C1325      C1326   1.376       .  D
C1327      H1332   1.086       .  S
C1327      C1328   1.378       .  D
C1333      C1334   1.526       .  S
C1333      C1339   1.521       .  S
C1333      C1337   1.512       .  S
C1333      C1483   1.544       .  S
C1334      H1341   1.078       .  S
C1334      C1335   1.378       .  D
C1335      C1336   1.540       .  S
C1335      C1352   1.536       .  S
C1336      C1340   1.586       .  S
C1336      C1338   1.598       .  S
C1336      H1342   1.110   1_556  S
C1337      H1343   1.086       .  S
C1337      C1338   1.386       .  D
C1338      C1410   1.493   1_556  S
C1339      H1344   1.087       .  S
C1339      C1340   1.367       .  D
C1340      C1395   1.550       .  S
C1345      C1346   1.500       .  S
C1345      C1351   1.506       .  S
C1345      C1349   1.548       .  S
C1345      C1513   1.515       .  S
C1346      H1353   1.086       .  S
C1346      C1347   1.378       .  D
C1347      C1348   1.589       .  S
C1347      C1364   1.550       .  S
C1348      C1352   1.585       .  S
C1348      C1350   1.557       .  S
C1348      H1354   1.110   1_556  S
C1349      H1355   1.085       .  S
C1349      C1350   1.378       .  D
C1350      C1443   1.499   1_556  S
C1351      H1356   1.084       .  S
C1351      C1352   1.360       .  D
C1357      C1358   1.535   1_565  S
C1357      C1363   1.519   1_565  S
C1357      C2027   1.518       .  S
C1357      C2188   1.524       .  S
C1358      H1365   1.077       .  S
C1358      C1359   1.366       .  D
C1359      C1360   1.546       .  S
C1359      C1374   1.536       .  S
C1360      C1364   1.601       .  S
C1360      C2028   1.575   1_545  S
C1360      H1366   1.110   1_556  S
C1361      C2023   1.517       .  S
C1361      H1367   1.086       .  S
C1361      C1362   1.373       .  D
C1362      C2026   1.581       .  S
C1362      C1470   1.491   1_556  S
C1363      H1368   1.087       .  S
C1363      C1364   1.383       .  D
C1369      C1370   1.535       .  S
C1369      C2041   1.514       .  S
C1369      C2039   1.496       .  S
C1369      C1496   1.524       .  S
C1370      H1377   1.086       .  S
C1370      C1371   1.374       .  D
C1371      C2038   1.559       .  S
C1371      C1458   1.485   1_556  S
C1372      C2037   1.561   1_545  S
C1372      C1376   1.569       .  S
C1372      C1374   1.583       .  S
C1372      H1378   1.110       .  S
C1373      C2035   1.496   1_545  S
C1373      H1379   1.075   1_545  S
C1373      C1374   1.376       .  D
C1375      C2035   1.511   1_545  S
C1375      H1380   1.085       .  S
C1375      C1376   1.381       .  D
C1376      C1388   1.544       .  S
C1381      C1382   1.527       .  S
C1381      C1387   1.517       .  S
C1381      C1385   1.515   1_655  S
C1382      H1389   1.084       .  S
C1382      C1383   1.371       .  D
C1383      C1384   1.534       .  S
C1383      C1400   1.530       .  S
C1384      C1388   1.580       .  S
C1384      C1386   1.601   1_556  S
C1384      H1390   1.110   1_556  S
C1385      C1386   1.394   1_456  D
C1387      H1392   1.088       .  S
C1387      C1388   1.363       .  D
C1393      C1394   1.503       .  S
C1393      C1399   1.498       .  S
C1393      C1397   1.550   1_655  S
C1394      H1401   1.085       .  S
C1394      C1395   1.384       .  D
C1395      C1396   1.586       .  S
C1396      C1400   1.583       .  S
C1396      C1398   1.547       .  S
C1396      H1402   1.110       .  S
C1397      C1398   1.374   1_455  D
C1399      H1404   1.086       .  S
C1399      C1400   1.360       .  D
C1405      C1406   1.506       .  S
C1405      C1411   1.502       .  S
C1405      C1409   1.546       .  S
C1405      C1848   1.516       .  S
C1406      H1413   1.082       .  S
C1406      C1407   1.362       .  D
C1407      C1408   1.583       .  S
C1407      C1446   1.536       .  S
C1408      C1412   1.588       .  S
C1408      C1410   1.556       .  S
C1408      H1414   1.110       .  S
C1409      H1415   1.085       .  S
C1409      C1410   1.378       .  D
C1411      H1416   1.086       .  S
C1411      C1412   1.378       .  D
C1412      C1455   1.554       .  S
C1417      C1418   1.500       .  S
C1417      C1423   1.502       .  S
C1418      H1425   1.087       .  S
C1418      C1419   1.363       .  D
C1419      C1420   1.585       .  S
C1419      C1434   1.533       .  S
C1420      C1424   1.592       .  S
C1420      C1422   1.547       .  S
C1420      H1426   1.110       .  S
C1421      H1427   1.086       .  S
C1423      H1428   1.085       .  S
C1423      C1424   1.384       .  D
C1424      C1448   1.555       .  S
C1429      C1435   1.519       .  S
C1429      C1433   1.529       .  S
C1430      H1437   1.086       .  S
C1431      C1432   1.608       .  S
C1432      C1436   1.579       .  S
C1432      C1434   1.536       .  S
C1432      H1438   1.110       .  S
C1433      H1439   1.085       .  S
C1433      C1434   1.370       .  D
C1435      H1440   1.088       .  S
C1435      C1436   1.366       .  D
C1436      C1472   1.548       .  S
C1441      C1442   1.517       .  S
C1441      C1447   1.522       .  S
C1441      C1445   1.526       .  S
C1441      C1835   1.549       .  S
C1442      H1449   1.086       .  S
C1442      C1443   1.388       .  D
C1443      C1444   1.599       .  S
C1444      C1448   1.590       .  S
C1444      C1446   1.542       .  S
C1444      H1450   1.110       .  S
C1445      H1451   1.077       .  S
C1445      C1446   1.377       .  D
C1447      H1452   1.087       .  S
C1447      C1448   1.369       .  D
C1453      C1454   1.520       .  S
C1453      C1459   1.534       .  S
C1453      C1457   1.516       .  S
C1453      C2453   1.525       .  S
C1454      H1461   1.087       .  S
C1454      C1455   1.382       .  D
C1455      C1456   1.603       .  S
C1456      C1460   1.546       .  S
C1456      C1458   1.579       .  S
C1456      H1462   1.110       .  S
C1457      H2129   1.086       .  S
C1457      C1458   1.374       .  D
C1459      H1464   1.075       .  S
C1459      C1460   1.366       .  D
C1460      C1467   1.541       .  S
H1463      C2123   1.086   1_545  S
C1465      C1466   1.495       .  S
C1465      C1471   1.509       .  S
C1465      C1469   1.538       .  S
C1465      C2466   1.525       .  S
C1466      H1473   1.075       .  S
C1466      C1467   1.377       .  D
C1467      C1468   1.589       .  S
C1468      C1472   1.575       .  S
C1468      C1470   1.559       .  S
C1468      H1474   1.110       .  S
C1469      H2141   1.086       .  S
C1469      C1470   1.372       .  D
C1471      H1476   1.086       .  S
C1471      C1472   1.380       .  D
H1475      C2135   1.086   1_545  S
In1477     O1479   2.149       .  S
In1477     O1480   2.309       .  S
In1477     O1488   2.252       .  S
In1477     O1482   2.146       .  S
In1477     O1484   2.119       .  S
In1477     O1485   2.346       .  S
In1477     O1486   2.256       .  S
In1477     O1489   2.248       .  S
C1478      O1484   1.274       .  A
C1478      O1486   1.285       .  A
C1478      C1543   1.452       .  S
O1479      C1487   1.268       .  A
O1480      C1487   1.294       .  A
C1481      O1488   1.278       .  A
C1481      O1482   1.271       .  A
C1481      C1507   1.453       .  S
C1483      O1485   1.269       .  A
C1483      O1489   1.255       .  A
C1487      C1651   1.525       .  S
In1490     O1492   2.113       .  S
In1490     O1493   2.373       .  S
In1490     O1501   2.298       .  S
In1490     O2161   2.112       .  S
In1490     O1497   2.104       .  S
In1490     O1498   2.304       .  S
In1490     O1499   2.296       .  S
In1490     O1502   2.182       .  S
C1491      O1497   1.263       .  A
C1491      O1499   1.284       .  A
C1491      C1520   1.459       .  S
O1492      C1500   1.262       .  A
O1493      C1500   1.281       .  A
C1494      O2167   1.279   1_545  A
C1494      O1495   1.262       .  A
C1494      C1533   1.457       .  S
O1495     In2156   2.111   1_545  S
C1496      O1498   1.285       .  A
C1496      O1502   1.267       .  A
C1500      C1663   1.533       .  S
O1501      C2160   1.278       .  A
In1503     O1505   2.132       .  S
In1503     O1506   2.287       .  S
In1503     O1514   2.242       .  S
In1503     O1508   2.143       .  S
In1503     O1510   2.163       .  S
In1503     O1511   2.325       .  S
In1503     O1512   2.243       .  S
In1503     O1515   2.253       .  S
C1504      O1510   1.274       .  A
C1504      O1512   1.278       .  A
C1504      C1517   1.455       .  S
O1505      C1513   1.268       .  A
O1506      C1513   1.294       .  A
C1507      O1514   1.282       .  A
C1507      O1508   1.276       .  A
C1509      C1687   1.541       .  S
C1509      O1511   1.267       .  A
C1509      O1515   1.256       .  A
In1516     O1518   2.163       .  S
In1516     O1519   2.271       .  S
In1516     O1527   2.280       .  S
In1516     O2187   2.110       .  S
In1516     O2189   2.133       .  S
In1516     O1524   2.312       .  S
In1516     O2191   2.256       .  S
In1516     O1528   2.279       .  S
C1517      O1523   1.278       .  A
C1517      O1525   1.285   1_545  A
O1518      C1526   1.273       .  A
O1519      C1526   1.293       .  A
C1520      O1527   1.283       .  A
C1520      O2187   1.272       .  A
O1521     In2182   2.096       .  S
O1521      C2186   1.272       .  A
C1522      C2023   1.525       .  S
C1522      O1524   1.264       .  A
C1522      O1528   1.252       .  A
O1523     In2182   2.150   1_545  S
O1525     In2182   2.231       .  S
C1526      C2341   1.517       .  S
In1529     O1531   2.121   1_455  S
In1529     O1540   2.302   1_455  S
In1529     O1534   2.095   1_455  S
In1529     O1536   2.132   1_455  S
In1529     O1541   2.183   1_455  S
C1530      O1538   1.278       .  A
C1530      C1546   1.455       .  S
O1532      C1539   1.268       .  A
C1533      O1540   1.284       .  A
C1533      O1534   1.263       .  A
C1535      O1537   1.294       .  A
In1542     O1544   2.154   1_455  S
In1542     O1547   2.119   1_455  S
In1542     O1549   2.124   1_455  S
In1542     O1551   2.258       .  S
In1542     O1554   2.263       .  S
C1543      O1549   1.273       .  A
C1543      O1551   1.281   1_655  A
O1545      C1552   1.292       .  A
C1546      O1553   1.287       .  A
C1548      O1550   1.261       .  A
C1555      C1556   1.546       .  S
C1555      C1561   1.507       .  S
C1555      C2225   1.506       .  S
C1555      C1709   1.522       .  S
C1556      H1563   1.086       .  S
C1556      C1557   1.376       .  D
C1557      C1558   1.556       .  S
C1557      C1665   1.494       .  S
C1558      C1562   1.586       .  S
C1558      C2226   1.584       .  S
C1558      H1564   1.110       .  S
C1559      C2221   1.509   1_545  S
C1559      H1565   1.082       .  S
C1559      C1560   1.364       .  D
C1560      C2224   1.579   1_545  S
C1560      C1569   1.535       .  S
C1561      H1566   1.086       .  S
C1561      C1562   1.383       .  D
C1562      C1622   1.556       .  S
C1567      C1573   1.520       .  S
C1567      C1571   1.516       .  S
C1567      C1744   1.545       .  S
C1568      H1575   1.076       .  S
C1568      C1569   1.375       .  D
C1569      C1570   1.542       .  S
C1570      C1572   1.602       .  S
C1570      H1576   1.110       .  S
C1571      H1577   1.086       .  S
C1572      C1632   1.503       .  S
C1573      H1578   1.087       .  S
C1573      C1574   1.369       .  D
C1574      C1581   1.556       .  S
C1579      C1580   1.503       .  S
C1579      C1585   1.500       .  S
C1579      C1583   1.547       .  S
C1579      C1735   1.516       .  S
C1580      H1587   1.086       .  S
C1580      C1581   1.384       .  D
C1581      C1582   1.591       .  S
C1582      C1586   1.586       .  S
C1582      C1584   1.553       .  S
C1582      H1588   1.110       .  S
C1583      H1589   1.086       .  S
C1583      C1584   1.372       .  D
C1584      C1689   1.493       .  S
C1585      H1590   1.086       .  S
C1585      C1586   1.363       .  D
C1586      C1593   1.539       .  S
C1591      C2258   1.527       .  S
C1591      C1597   1.512       .  S
C1591      C1595   1.514       .  S
C1591      C1722   1.529       .  S
C1592      C2257   1.526       .  S
C1592      H1599   1.084   1_565  S
C1592      C1593   1.370   1_565  D
C1593      C2260   1.542   1_545  S
C1594      C2259   1.538       .  S
C1594      C1598   1.589       .  S
C1594      C1596   1.607       .  S
C1594      H1600   1.110       .  S
C1595      H1601   1.085       .  S
C1595      C1596   1.394       .  D
C1596      C2346   1.490       .  S
C1597      H1602   1.088       .  S
C1597      C1598   1.359       .  D
C1598      C1610   1.548       .  S
C1603      C1604   1.533       .  S
C1603      C1607   1.493       .  S
C1603      C1770   1.522       .  S
C1604      H1611   1.086       .  S
C1604      C1605   1.376       .  D
C1605      C1606   1.562       .  S
C1605      C1644   1.488       .  S
C1606      C1608   1.588       .  S
C1606      H1612   1.110       .  S
C1607      H1613   1.078       .  S
C1607      C1608   1.373       .  D
C1608      C1617   1.536       .  S
C1609      H1614   1.085       .  S
C1609      C1610   1.385       .  D
C1615      C1616   1.536       .  S
C1615      C1621   1.519       .  S
C1615      C1619   1.525       .  S
C1615      C1757   1.530       .  S
C1616      H1623   1.074       .  S
C1616      C1617   1.367       .  D
C1617      C1618   1.540       .  S
C1618      C1622   1.604       .  S
C1618      C1620   1.579       .  S
C1618      H1624   1.110       .  S
C1619      H1625   1.086       .  S
C1619      C1620   1.378       .  D
C1620      C1656   1.492       .  S
C1621      H1626   1.087       .  S
C1621      C1622   1.376       .  D
C1627      C1628   1.507       .  S
C1627      C1633   1.500       .  S
C1627      C1631   1.553       .  S
C1628      H1635   1.086       .  S
C1628      C1629   1.364       .  D
C1629      C1630   1.577       .  S
C1629      C1668   1.532       .  S
C1630      C1634   1.587       .  S
C1630      C1632   1.555       .  S
C1630      H1636   1.110       .  S
C1631      C1632   1.377       .  D
C1633      H1638   1.085       .  S
C1633      C1634   1.385       .  D
C1634      C1641   1.549       .  S
C1639      C1640   1.517       .  S
C1639      C1645   1.538   1_455  S
C1639      C1643   1.526       .  S
C1640      H1647   1.087       .  S
C1640      C1641   1.374   1_455  D
C1641      C1642   1.604       .  S
C1642      C1646   1.543       .  S
C1642      C1644   1.575       .  S
C1642      H1648   1.110       .  S
C1643      C1644   1.380   1_455  D
C1645      H1650   1.075       .  S
C1645      C1646   1.367       .  D
C1646      C1653   1.543       .  S
C1651      C1652   1.498       .  S
C1651      C1657   1.517       .  S
C1651      C1655   1.532       .  S
C1652      H1659   1.079       .  S
C1652      C1653   1.374       .  D
C1653      C1654   1.590       .  S
C1654      C1658   1.571       .  S
C1654      C1656   1.568       .  S
C1654      H1660   1.110       .  S
C1655      H1661   1.086       .  S
C1655      C1656   1.377       .  D
C1657      H1662   1.086       .  S
C1657      C1658   1.380       .  D
C1658      C1694   1.550       .  S
C1663      C1664   1.515       .  S
C1663      C1669   1.514       .  S
C1663      C2333   1.524       .  S
C1664      H1671   1.086       .  S
C1664      C1665   1.396       .  D
C1665      C2332   1.612       .  S
C1666      C2331   1.603   1_545  S
C1666      C1670   1.585       .  S
C1666      C1668   1.538       .  S
C1666      H1672   1.110       .  S
C1667      C2329   1.526   1_545  S
C1667      H1673   1.083       .  S
C1667      C1668   1.368       .  D
C1669      H1674   1.088       .  S
C1669      C2336   1.362       .  D
C1670      C2335   1.368   1_545  D
C1670      C1682   1.550       .  S
C1675      C1676   1.497   1_565  S
C1675      C1681   1.500   1_565  S
C1675      C2345   1.548       .  S
C1675      C2192   1.516       .  S
C1676      H1683   1.082       .  S
C1676      C1677   1.366       .  D
C1677      C1678   1.589       .  S
C1677      C1692   1.534       .  S
C1678      C1682   1.585       .  S
C1678      C1680   1.551   1_545  S
C1678      H1684   1.110       .  S
C1679      C2341   1.545       .  S
C1679      H1685   1.086       .  S
C1679      C2346   1.371       .  D
C1680      C2345   1.373       .  D
C1680      C2262   1.494       .  S
C1681      H2352   1.085   1_545  S
C1681      C1682   1.381       .  D
H1686      C2347   1.084       .  S
C1687      C1688   1.510       .  S
C1687      C1693   1.516       .  S
C1687      C1691   1.523       .  S
C1688      H1695   1.086       .  S
C1688      C1689   1.384       .  D
C1689      C1690   1.597       .  S
C1690      C1694   1.588       .  S
C1690      C1692   1.545       .  S
C1690      H1696   1.110       .  S
C1691      H1697   1.077       .  S
C1691      C1692   1.375       .  D
C1693      H1698   1.086       .  S
C1693      C1694   1.367       .  D
In1699     O1701   2.150       .  S
In1699     O1702   2.293       .  S
In1699     O2376   2.242       .  S
In1699     O2370   2.136       .  S
In1699     O1706   2.143       .  S
In1699     O1707   2.325       .  S
In1699     O1708   2.247       .  S
In1699     O1711   2.267       .  S
C1700      O1706   1.274       .  A
C1700      O1708   1.279       .  A
C1700      C1752   1.455       .  S
O1701      C1709   1.268       .  A
O1702      C1709   1.294       .  A
C1703      O1710   1.281       .  A
C1703      O1704   1.276       .  A
C1703      C1742   1.453       .  S
O1704     In2365   2.153   1_545  S
C1705      C1855   1.545       .  S
C1705      O1707   1.267       .  A
C1705      O1711   1.256       .  A
O1710     In2365   2.232   1_545  S
In1712     O1714   2.115       .  S
In1712     O1715   2.366       .  S
In1712     O1723   2.300       .  S
In1712     O1717   2.107       .  S
In1712     O2385   2.117       .  S
In1712     O1720   2.303       .  S
In1712     O2387   2.294       .  S
In1712     O1724   2.186       .  S
C1713      O1719   1.263       .  A
C1713      O1721   1.280       .  A
C1713      C1729   1.457       .  S
O1714      C1722   1.261       .  A
O1715      C1722   1.280       .  A
C1716      O1723   1.284       .  A
C1716      O1717   1.263       .  A
C1716      C1768   1.461       .  S
C1718      C1867   1.527       .  S
C1718      O1720   1.286       .  A
C1718      O1724   1.266       .  A
O1719     In2378   2.117   1_545  S
O1721     In2378   2.297   1_545  S
In1725     O1727   2.159       .  S
In1725     O1728   2.279       .  S
In1725     O1736   2.288       .  S
In1725     O1730   2.094       .  S
In1725     O1732   2.132       .  S
In1725     O1733   2.345       .  S
In1725     O1734   2.268       .  S
In1725     O1737   2.213       .  S
C1726      O1732   1.269       .  A
C1726      O1734   1.279       .  A
C1726      C1739   1.453       .  S
O1727      C1735   1.270       .  A
O1728      C1735   1.291       .  A
C1729      O1736   1.288       .  A
C1729      O1730   1.271       .  A
C1731      C1879   1.524       .  S
C1731      O1733   1.271       .  A
C1731      O1737   1.251       .  A
In1738     O1740   2.140       .  S
In1738     O1749   2.236   1_455  S
In1738     O1743   2.162   1_455  S
In1738     O1750   2.259       .  S
C1739      O1745   1.275       .  A
C1739      O1747   1.283       .  A
O1740      C1748   1.268       .  A
C1742      O1749   1.277       .  A
C1742      O1743   1.273       .  A
C1744      O1746   1.270       .  A
C1748      C1891   1.523       .  S
In1751     O1753   2.158       .  S
In1751     O1754   2.279       .  S
In1751     O1762   2.277       .  S
In1751     O1756   2.109       .  S
In1751     O1758   2.136       .  S
In1751     O1759   2.323       .  S
In1751     O1760   2.248       .  S
In1751     O1763   2.272       .  S
C1752      O1758   1.277       .  A
C1752      O1760   1.286       .  A
O1753      C1761   1.273       .  A
O1754      C1761   1.293       .  A
C1755      O1762   1.281       .  A
C1755      O1756   1.272       .  A
C1755      C1765   1.457       .  S
C1757      O1759   1.264       .  A
C1757      O1763   1.254       .  A
C1761      C1915   1.519       .  S
In1764     O1766   2.123       .  S
In1764     O1767   2.371       .  S
In1764     O1771   2.102       .  S
In1764     O1772   2.310       .  S
In1764     O1773   2.297       .  S
In1764     O1776   2.168       .  S
C1765      O1771   1.262       .  A
C1765      O1773   1.285       .  A
O1766      C1774   1.260       .  A
O1767      C1774   1.281       .  A
C1768      O1775   1.279       .  A
C1768      O1769   1.268       .  A
C1770      O1772   1.286       .  A
C1770      O1776   1.266       .  A
C1774      C1903   1.533       .  S
In1777     O1779   2.276       .  S
In1777     O2446   2.318       .  S
In1777     O2454   2.278       .  S
In1777     O1782   2.104       .  S
In1777     O1784   2.138       .  S
In1777     O2451   2.273       .  S
In1777     O1786   2.233       .  S
In1777     O1789   2.167       .  S
C1778      O1784   1.278       .  A
C1778      O1786   1.286       .  A
C1778      C1843   1.450       .  S
O1779      C2453   1.251       .  A
O1780     In2443   2.289   1_545  S
O1780      C1787   1.260   1_545  A
C1781      O2454   1.281       .  A
C1781      O1782   1.271       .  A
C1781      C1791   1.455       .  S
C1783      C2593   1.517       .  S
C1783      O1785   1.294   1_565  A
C1783      O2455   1.272       .  A
O1785     In2443   2.273   1_545  S
C1787      C2119   1.527       .  S
C1787      O2445   1.257       .  A
O1788     In2443   2.259   1_545  S
O1788      C2447   1.284       .  A
O1789      C2449   1.273       .  A
In1790     O1792   2.193       .  S
In1790     O2459   2.290       .  S
In1790     O1801   2.299       .  S
In1790     O1795   2.132       .  S
In1790     O1797   2.093       .  S
In1790     O2464   2.380       .  S
In1790     O2465   2.285       .  S
In1790     O1802   2.155       .  S
C1791      O1797   1.267       .  A
C1791      O2465   1.288       .  A
O1792      C2466   1.271       .  A
O1793     In2456   2.307       .  S
O1793      C1800   1.293   1_545  A
C1794      O1801   1.278       .  A
C1794      O1795   1.265       .  A
C1794      C1807   1.463       .  S
C1796      C2605   1.550   1_545  S
C1796      O1798   1.267       .  A
C1796      O2468   1.256       .  A
O1798     In2456   2.344       .  S
O1799     In2456   2.257       .  S
O1799      C2457   1.285       .  A
C1800      C2131   1.530       .  S
C1800      O2458   1.270       .  A
O1802      C2462   1.257       .  A
In1803     O1805   2.149   1_655  S
In1803     O1806   2.298       .  S
In1803     O1811   2.330       .  S
In1803     O1812   2.254       .  S
In1803     O1815   2.267       .  S
C1804      O1812   1.280       .  A
C1804      C1820   1.453       .  S
O1805      C1813   1.268   1_455  A
O1806      C1813   1.294       .  A
C1807      O1814   1.284       .  A
C1807      O1808   1.263       .  A
C1809      O1811   1.266       .  A
C1809      O1815   1.256       .  A
In1816     O1818   2.275       .  S
In1816     O1819   2.318       .  S
In1816     O1827   2.249       .  S
In1816     O1824   2.274       .  S
In1816     O1828   2.171   1_655  S
C1817      O1823   1.271       .  A
C1817      O1825   1.281       .  A
C1817      C1833   1.455       .  S
O1818      C1826   1.252       .  A
O1819      C1826   1.264       .  A
C1820      O1827   1.288       .  A
C1822      O1824   1.293       .  A
C1822      O1828   1.273   1_655  A
In1829     O1831   2.142       .  S
In1829     O1832   2.315       .  S
In1829     O1840   2.263       .  S
In1829     O1834   2.121       .  S
In1829     O1836   2.165       .  S
In1829     O1837   2.349       .  S
In1829     O1838   2.251       .  S
In1829     O1841   2.256       .  S
C1830      O1836   1.272       .  A
C1830      O1838   1.277       .  A
C1830      C1846   1.457       .  S
O1831      C1839   1.267       .  A
O1832      C1839   1.294       .  A
C1833      O1840   1.284       .  A
C1833      O1834   1.274       .  A
C1835      O1837   1.270       .  A
C1835      O1841   1.256       .  A
C1839      C1987   1.526       .  S
In1842     O1844   2.260       .  S
In1842     O1845   2.319       .  S
In1842     O1853   2.239       .  S
In1842     O1847   2.160       .  S
In1842     O1849   2.151       .  S
In1842     O1850   2.294       .  S
In1842     O1851   2.241       .  S
In1842     O1854   2.128       .  S
C1843      O1849   1.274       .  A
C1843      O1851   1.278       .  A
O1844      C1852   1.258       .  A
O1845      C1852   1.265       .  A
C1846      O1853   1.280       .  A
C1846      O1847   1.276       .  A
C1848      O1850   1.294       .  A
C1848      O1854   1.266       .  A
C1852      C1951   1.546       .  S
C1855      C1856   1.512       .  S
C1855      C2527   1.520       .  S
C1855      C1859   1.523       .  S
C1856      H1863   1.086       .  S
C1856      C1857   1.383       .  D
C1857      C1858   1.600       .  S
C1857      C1932   1.497       .  S
C1858      C2528   1.586       .  S
C1858      C1860   1.543       .  S
C1858      H1864   1.110       .  S
C1859      H1865   1.074       .  S
C1859      C1860   1.376       .  D
C1860      C1917   1.532       .  S
C1861      C2521   1.518   1_545  S
C1861      H1866   1.086       .  S
C1861      C1862   1.372       .  D
C1862      C2524   1.584   1_545  S
C1862      C1898   1.550       .  S
C1867      C1868   1.502       .  S
C1867      C2539   1.503       .  S
C1867      C1871   1.551       .  S
C1868      H1875   1.085       .  S
C1868      C1869   1.365       .  D
C1869      C1870   1.583       .  S
C1869      C1908   1.531       .  S
C1870      C2540   1.584       .  S
C1870      C1872   1.554       .  S
C1870      H1876   1.110       .  S
C1871      H1877   1.086       .  S
C1871      C1872   1.377       .  D
C1872      C1944   1.499       .  S
C1873      C2533   1.503   1_545  S
C1873      H1878   1.084       .  S
C1873      C1874   1.386       .  D
C1874      C2536   1.580   1_545  S
C1874      C1881   1.549       .  S
C1879      C1880   1.519       .  S
C1879      C1885   1.542       .  S
C1879      C1883   1.526       .  S
C1880      H1887   1.088       .  S
C1880      C1881   1.371       .  D
C1881      C1882   1.603       .  S
C1882      C1886   1.538       .  S
C1882      C1884   1.579       .  S
C1882      H1888   1.110       .  S
C1883      H1889   1.086       .  S
C1883      C1884   1.383       .  D
C1884      C1989   1.487       .  S
C1885      H1890   1.079       .  S
C1885      C1886   1.367       .  D
C1886      C1893   1.540       .  S
C1891      C1897   1.512   1_455  S
C1891      C1895   1.534       .  S
C1892      H1899   1.080       .  S
C1892      C1893   1.372       .  D
C1894      C1898   1.575   1_455  S
C1894      C1896   1.567       .  S
C1894      H1900   1.110   1_455  S
C1895      C1896   1.379       .  D
C1897      H1902   1.086       .  S
C1897      C1898   1.376       .  D
C1903      C1904   1.512       .  S
C1903      C1909   1.514       .  S
C1904      H1911   1.086       .  S
C1904      C1905   1.393       .  D
C1905      C1906   1.611       .  S
C1906      C1910   1.591       .  S
C1906      H1912   1.110       .  S
C1907      H1913   1.081       .  S
C1907      C1908   1.373       .  D
C1909      H1914   1.088       .  S
C1909      C1910   1.365       .  D
C1910      C1922   1.555       .  S
C1915      C1916   1.496       .  S
C1915      C1921   1.503       .  S
C1915      C1919   1.551       .  S
C1916      H1923   1.081       .  S
C1916      C1917   1.363       .  D
C1917      C1918   1.586       .  S
C1918      C1922   1.586       .  S
C1918      C1920   1.551       .  S
C1918      H1924   1.110       .  S
C1919      H1925   1.085       .  S
C1919      C1920   1.376       .  D
C1920      C1956   1.495       .  S
C1921      H1926   1.085       .  S
C1921      C1922   1.383       .  D
C1927      C1928   1.503       .  S
C1927      C1933   1.497       .  S
C1927      C1931   1.550       .  S
C1927      C2449   1.519       .  S
C1928      H1935   1.084       .  S
C1928      C1929   1.381       .  D
C1929      C1930   1.591       .  S
C1929      C1946   1.558       .  S
C1930      C1934   1.590       .  S
C1930      C1932   1.552       .  S
C1930      H1936   1.110       .  S
C1931      H1937   1.086       .  S
C1931      C1932   1.374       .  D
C1933      H1938   1.083       .  S
C1933      C1934   1.365       .  D
C1934      C1953   1.534       .  S
C1939      C1940   1.522       .  S
C1939      C1945   1.520       .  S
C1939      C1943   1.517       .  S
C1939      C2462   1.536       .  S
C1940      H1947   1.082       .  S
C1940      C1941   1.363       .  D
C1941      C1942   1.542       .  S
C1941      C1980   1.529       .  S
C1942      C1946   1.591       .  S
C1942      C1944   1.608       .  S
C1942      H1948   1.110       .  S
C1943      H2615   1.086       .  S
C1943      C1944   1.395       .  D
C1945      H1950   1.088       .  S
C1945      C1946   1.368       .  D
H1949      C2609   1.086   1_545  S
C1951      C1952   1.524       .  S
C1951      C1957   1.516       .  S
C1951      C1955   1.513       .  S
C1952      H1959   1.077       .  S
C1952      C1953   1.377       .  D
C1953      C1954   1.546       .  S
C1954      C1958   1.583       .  S
C1954      C1956   1.596       .  S
C1954      H1960   1.110       .  S
C1955      H1961   1.086       .  S
C1955      C1956   1.385       .  D
C1957      H1962   1.085       .  S
C1957      C1958   1.368       .  D
C1958      C1994   1.546       .  S
C1963      C1964   1.540       .  S
C1963      C1969   1.515       .  S
C1964      H1971   1.080       .  S
C1964      C1965   1.365       .  D
C1965      C1966   1.545       .  S
C1965      C1992   1.546       .  S
C1966      C1970   1.611       .  S
C1966      C1968   1.581       .  S
C1966      H1972   1.110       .  S
C1967      H1973   1.085       .  S
C1969      H1974   1.088       .  S
C1969      C1970   1.368       .  D
C1970      C1982   1.553       .  S
C1975      C1981   1.507       .  S
C1975      C1979   1.504       .  S
C1976      H1983   1.086       .  S
C1977      C1978   1.555       .  S
C1978      C1982   1.578       .  S
C1978      C1980   1.573       .  S
C1978      H1984   1.110       .  S
C1979      H1985   1.084       .  S
C1979      C1980   1.369       .  D
C1981      C1982   1.388       .  D
C1987      C1988   1.530       .  S
C1987      C1993   1.515       .  S
C1987      C1991   1.499       .  S
C1988      H1995   1.086       .  S
C1988      C1989   1.379       .  D
C1989      C1990   1.567       .  S
C1990      C1994   1.570       .  S
C1990      C1992   1.589       .  S
C1990      H1996   1.110       .  S
C1991      H1997   1.080       .  S
C1991      C1992   1.375       .  D
C1993      H1998   1.086       .  S
C1993      C1994   1.378       .  D
C1999      C2000   1.530       .  S
C1999      C2005   1.521       .  S
C1999      C2003   1.512       .  S
C1999      C2149   1.538       .  S
C2000      H2007   1.076       .  S
C2000      C2001   1.378       .  D
C2001      C2002   1.539       .  S
C2001      C2018   1.542       .  S
C2002      C2006   1.594       .  S
C2002      C2004   1.606       .  S
C2002      H2008   1.110   1_556  S
C2003      H2009   1.086       .  S
C2003      C2004   1.389       .  D
C2004      C2076   1.501   1_556  S
C2005      H2010   1.088       .  S
C2005      C2006   1.363       .  D
C2006      C2061   1.554       .  S
C2011      C2012   1.502       .  S
C2011      C2017   1.505       .  S
C2011      C2015   1.545       .  S
C2011      C2179   1.517       .  S
C2012      H2019   1.086       .  S
C2012      C2013   1.379       .  D
C2013      C2014   1.593       .  S
C2013      C2030   1.559       .  S
C2014      C2018   1.590       .  S
C2014      C2016   1.558       .  S
C2014      H2020   1.110   1_556  S
C2015      H2021   1.086       .  S
C2015      C2016   1.375       .  D
C2016      C2109   1.496   1_556  S
C2017      H2022   1.082       .  S
C2017      C2018   1.362       .  D
C2023      C2024   1.532       .  S
C2023      C2029   1.521       .  S
C2024      H2031   1.074       .  S
C2024      C2025   1.365       .  D
C2025      C2026   1.546       .  S
C2025      C2040   1.535       .  S
C2026      C2030   1.604       .  S
C2026      H2032   1.110   1_556  S
C2027      H2033   1.086       .  S
C2027      C2028   1.372       .  D
C2028      C2136   1.486   1_556  S
C2029      H2034   1.087       .  S
C2029      C2030   1.383       .  D
C2035      C2036   1.539       .  S
C2035      C2162   1.529       .  S
C2036      H2043   1.086       .  S
C2036      C2037   1.377       .  D
C2037      C2124   1.494   1_556  S
C2038      C2042   1.568       .  S
C2038      C2040   1.582       .  S
C2038      H2044   1.110       .  S
C2039      H2045   1.076       .  S
C2039      C2040   1.376       .  D
C2041      H2046   1.085       .  S
C2041      C2042   1.382       .  D
C2042      C2054   1.547       .  S
C2047      C2048   1.529       .  S
C2047      C2053   1.519       .  S
C2047      C2051   1.512   1_655  S
C2048      H2055   1.080       .  S
C2048      C2049   1.371       .  D
C2049      C2050   1.534       .  S
C2049      C2066   1.529       .  S
C2050      C2054   1.584       .  S
C2050      C2052   1.604   1_556  S
C2050      H2056   1.110   1_556  S
C2051      C2052   1.391   1_456  D
C2053      H2058   1.088       .  S
C2053      C2054   1.365       .  D
C2059      C2060   1.504       .  S
C2059      C2065   1.503       .  S
C2059      C2063   1.550   1_655  S
C2060      H2067   1.083       .  S
C2060      C2061   1.388       .  D
C2061      C2062   1.583       .  S
C2062      C2066   1.579       .  S
C2062      C2064   1.545       .  S
C2062      H2068   1.110       .  S
C2063      C2064   1.373   1_455  D
C2065      H2070   1.085       .  S
C2065      C2066   1.362       .  D
C2071      C2072   1.510       .  S
C2071      C2077   1.499       .  S
C2071      C2075   1.552       .  S
C2071      C2514   1.523       .  S
C2072      H2079   1.087       .  S
C2072      C2073   1.360       .  D
C2073      C2074   1.581       .  S
C2073      C2112   1.539       .  S
C2074      C2078   1.594       .  S
C2074      C2076   1.555       .  S
C2074      H2080   1.110       .  S
C2075      H2081   1.085       .  S
C2075      C2076   1.377       .  D
C2077      H2082   1.085       .  S
C2077      C2078   1.383       .  D
C2078      C2121   1.551       .  S
C2083      C2084   1.501       .  S
C2083      C2089   1.499       .  S
C2084      H2091   1.086       .  S
C2084      C2085   1.366       .  D
C2085      C2086   1.587       .  S
C2085      C2100   1.539       .  S
C2086      C2090   1.591       .  S
C2086      C2088   1.553       .  S
C2086      H2092   1.110       .  S
C2087      H2093   1.086       .  S
C2089      H2094   1.085       .  S
C2089      C2090   1.385       .  D
C2090      C2114   1.555       .  S
C2095      C2101   1.512       .  S
C2095      C2099   1.525       .  S
C2096      H2103   1.085       .  S
C2097      C2098   1.608       .  S
C2098      C2102   1.589       .  S
C2098      C2100   1.544       .  S
C2098      H2104   1.110       .  S
C2099      H2105   1.084       .  S
C2099      C2100   1.369       .  D
C2101      H2106   1.088       .  S
C2101      C2102   1.362       .  D
C2102      C2138   1.550       .  S
C2107      C2108   1.517       .  S
C2107      C2113   1.513       .  S
C2107      C2111   1.525       .  S
C2107      C2501   1.539       .  S
C2108      H2115   1.086       .  S
C2108      C2109   1.396       .  D
C2109      C2110   1.610       .  S
C2110      C2114   1.589       .  S
C2110      C2112   1.541       .  S
C2110      H2116   1.110       .  S
C2111      H2117   1.085       .  S
C2111      C2112   1.371       .  D
C2113      H2118   1.088       .  S
C2113      C2114   1.363       .  D
C2119      C2120   1.517       .  S
C2119      C2125   1.534       .  S
C2119      C2123   1.524       .  S
C2120      H2127   1.086       .  S
C2120      C2121   1.382       .  D
C2121      C2122   1.605       .  S
C2122      C2126   1.552       .  S
C2122      C2124   1.575       .  S
C2122      H2128   1.110       .  S
C2123      C2124   1.375       .  D
C2125      H2130   1.078       .  S
C2125      C2126   1.363       .  D
C2126      C2133   1.542       .  S
C2131      C2132   1.500       .  S
C2131      C2137   1.512       .  S
C2131      C2135   1.533       .  S
C2132      H2139   1.077       .  S
C2132      C2133   1.380       .  D
C2133      C2134   1.582       .  S
C2134      C2138   1.571       .  S
C2134      C2136   1.564       .  S
C2134      H2140   1.110       .  S
C2135      C2136   1.375       .  D
C2137      H2142   1.085       .  S
C2137      C2138   1.382       .  D
In2143     O2145   2.153       .  S
In2143     O2146   2.293       .  S
In2143     O2154   2.276       .  S
In2143     O2148   2.146       .  S
In2143     O2150   2.109       .  S
In2143     O2151   2.360       .  S
In2143     O2152   2.276       .  S
In2143     O2155   2.207       .  S
C2144      O2150   1.272       .  A
C2144      O2152   1.286       .  A
C2144      C2209   1.453       .  S
O2145      C2153   1.269       .  A
O2146      C2153   1.292       .  A
C2147      O2154   1.278       .  A
C2147      O2148   1.269       .  A
C2147      C2173   1.459       .  S
C2149      O2151   1.273       .  A
C2149      O2155   1.253       .  A
C2153      C2317   1.519       .  S
In2156     O2158   2.130       .  S
In2156     O2159   2.373       .  S
In2156     O2167   2.301       .  S
In2156     O2163   2.086       .  S
In2156     O2164   2.312       .  S
In2156     O2165   2.293       .  S
In2156     O2168   2.191       .  S
C2157      O2163   1.263       .  A
C2157      O2165   1.286       .  A
C2157      C2186   1.454       .  S
O2158      C2166   1.259       .  A
O2159      C2166   1.281       .  A
C2160      O2161   1.261       .  A
C2160      C2199   1.455       .  S
C2162      O2164   1.285       .  A
C2162      O2168   1.267       .  A
C2166      C2329   1.533       .  S
In2169     O2171   2.139       .  S
In2169     O2172   2.291       .  S
In2169     O2180   2.269       .  S
In2169     O2174   2.134       .  S
In2169     O2176   2.148       .  S
In2169     O2177   2.351       .  S
In2169     O2178   2.271       .  S
In2169     O2181   2.226       .  S
C2170      O2176   1.271       .  A
C2170      O2178   1.279       .  A
C2170      C2183   1.458       .  S
O2171      C2179   1.268       .  A
O2172      C2179   1.293       .  A
C2173      O2180   1.285       .  A
C2173      O2174   1.274       .  A
C2175      C2353   1.539       .  S
C2175      O2177   1.270       .  A
C2175      O2181   1.253       .  A
In2182     O2184   2.164       .  S
In2182     O2185   2.266       .  S
In2182     O2193   2.276       .  S
In2182     O2190   2.294       .  S
In2182     O2194   2.290       .  S
C2183      O2189   1.276       .  A
C2183      O2191   1.286       .  A
O2184      C2192   1.274       .  A
O2185      C2192   1.293       .  A
C2186      O2193   1.283       .  A
C2188      O2190   1.261       .  A
C2188      O2194   1.255       .  A
In2195     O2197   2.144   1_455  S
In2195     O2206   2.297   1_455  S
In2195     O2200   2.093   1_455  S
In2195     O2202   2.125   1_455  S
In2195     O2207   2.184   1_455  S
C2196      O2204   1.278       .  A
C2196      C2212   1.455       .  S
O2198      C2205   1.268       .  A
C2199      O2206   1.285       .  A
C2199      O2200   1.265       .  A
C2201      O2203   1.294       .  A
In2208     O2210   2.175   1_455  S
In2208     O2213   2.111   1_455  S
In2208     O2215   2.111   1_455  S
In2208     O2217   2.264       .  S
In2208     O2220   2.257       .  S
C2209      O2215   1.272       .  A
C2209      O2217   1.283   1_655  A
O2211      C2218   1.292       .  A
C2212      O2219   1.288       .  A
C2214      O2216   1.267       .  A
C2221      C2222   1.543       .  S
C2221      C2227   1.505       .  S
C2221      C2375   1.521       .  S
C2222      H2229   1.086       .  S
C2222      C2223   1.375       .  D
C2223      C2224   1.553       .  S
C2223      C2331   1.486       .  S
C2224      C2228   1.582       .  S
C2224      H2230   1.110       .  S
C2225      H2231   1.082       .  S
C2225      C2226   1.364       .  D
C2226      C2235   1.539       .  S
C2227      H2232   1.085       .  S
C2227      C2228   1.384       .  D
C2228      C2288   1.552       .  S
C2233      C2239   1.518       .  S
C2233      C2237   1.515       .  S
C2233      C2410   1.544       .  S
C2234      H2241   1.075       .  S
C2234      C2235   1.376       .  D
C2235      C2236   1.549       .  S
C2236      C2238   1.597       .  S
C2236      H2242   1.110       .  S
C2237      H2243   1.086       .  S
C2238      C2298   1.498       .  S
C2239      H2244   1.087       .  S
C2239      C2240   1.367       .  D
C2240      C2247   1.552       .  S
C2245      C2246   1.500       .  S
C2245      C2251   1.501       .  S
C2245      C2249   1.549       .  S
C2245      C2401   1.515       .  S
C2246      H2253   1.086       .  S
C2246      C2247   1.384       .  D
C2247      C2248   1.589       .  S
C2248      C2252   1.584       .  S
C2248      C2250   1.552       .  S
C2248      H2254   1.110       .  S
C2249      H2255   1.086       .  S
C2249      C2250   1.374       .  D
C2250      C2355   1.493       .  S
C2251      H2256   1.086       .  S
C2251      C2252   1.362       .  D
C2252      C2259   1.535       .  S
C2257      C2263   1.510       .  S
C2257      C2261   1.516       .  S
C2257      C2388   1.531       .  S
C2258      H2265   1.085       .  S
C2258      C2259   1.370       .  D
C2260      C2264   1.590       .  S
C2260      C2262   1.608       .  S
C2260      H2266   1.110       .  S
C2261      H2267   1.085       .  S
C2261      C2262   1.396       .  D
C2263      H2268   1.088       .  S
C2263      C2264   1.359       .  D
C2264      C2276   1.548       .  S
C2269      C2270   1.534       .  S
C2269      C2273   1.496       .  S
C2269      C2436   1.525       .  S
C2270      H2277   1.086       .  S
C2270      C2271   1.376       .  D
C2271      C2272   1.562       .  S
C2271      C2310   1.490       .  S
C2272      C2274   1.588       .  S
C2272      H2278   1.110       .  S
C2273      H2279   1.078       .  S
C2273      C2274   1.373       .  D
C2274      C2283   1.538       .  S
C2275      H2280   1.085       .  S
C2275      C2276   1.385       .  D
C2281      C2282   1.538       .  S
C2281      C2287   1.520       .  S
C2281      C2285   1.521       .  S
C2281      C2423   1.525       .  S
C2282      H2289   1.077       .  S
C2282      C2283   1.368       .  D
C2283      C2284   1.540       .  S
C2284      C2288   1.604       .  S
C2284      C2286   1.581       .  S
C2284      H2290   1.110       .  S
C2285      H2291   1.086       .  S
C2285      C2286   1.377       .  D
C2286      C2322   1.489       .  S
C2287      H2292   1.087       .  S
C2287      C2288   1.375       .  D
C2293      C2294   1.508       .  S
C2293      C2299   1.503       .  S
C2293      C2297   1.554       .  S
C2294      H2301   1.087       .  S
C2294      C2295   1.365       .  D
C2295      C2296   1.572       .  S
C2295      C2334   1.531       .  S
C2296      C2300   1.580       .  S
C2296      C2298   1.551       .  S
C2296      H2302   1.110       .  S
C2297      C2298   1.379       .  D
C2299      H2304   1.085       .  S
C2299      C2300   1.386       .  D
C2300      C2307   1.545       .  S
C2305      C2306   1.517   1_655  S
C2305      C2311   1.540       .  S
C2305      C2309   1.524       .  S
C2306      H2313   1.087       .  S
C2306      C2307   1.373   1_455  D
C2307      C2308   1.602       .  S
C2308      C2312   1.541       .  S
C2308      C2310   1.576       .  S
C2308      H2314   1.110       .  S
C2309      C2310   1.379       .  D
C2311      H2316   1.077       .  S
C2311      C2312   1.367       .  D
C2312      C2319   1.536       .  S
C2317      C2318   1.498       .  S
C2317      C2323   1.514       .  S
C2317      C2321   1.531       .  S
C2318      H2325   1.076       .  S
C2318      C2319   1.374       .  D
C2319      C2320   1.583       .  S
C2320      C2324   1.568       .  S
C2320      C2322   1.566       .  S
C2320      H2326   1.110       .  S
C2321      H2327   1.086       .  S
C2321      C2322   1.374       .  D
C2323      H2328   1.086       .  S
C2323      C2324   1.381       .  D
C2324      C2360   1.545       .  S
C2329      C2330   1.511       .  S
C2329      C2335   1.517       .  S
C2330      H2337   1.086       .  S
C2330      C2331   1.393       .  D
C2332      C2336   1.589       .  S
C2332      C2334   1.541       .  S
C2332      H2338   1.110       .  S
C2333      H2339   1.086       .  S
C2333      C2334   1.365       .  D
C2335      H2340   1.088       .  S
C2336      C2348   1.555       .  S
C2341      C2342   1.497       .  S
C2341      C2347   1.504       .  S
C2342      H2349   1.083       .  S
C2342      C2343   1.363       .  D
C2343      C2344   1.588       .  S
C2343      C2358   1.532       .  S
C2344      C2348   1.585       .  S
C2344      C2346   1.552       .  S
C2344      H2350   1.110       .  S
C2345      H2351   1.086       .  S
C2347      C2348   1.386       .  D
C2353      C2354   1.512       .  S
C2353      C2359   1.518       .  S
C2353      C2357   1.523       .  S
C2354      H2361   1.086       .  S
C2354      C2355   1.387       .  D
C2355      C2356   1.597       .  S
C2356      C2360   1.585       .  S
C2356      C2358   1.540       .  S
C2356      H2362   1.110       .  S
C2357      H2363   1.077       .  S
C2357      C2358   1.377       .  D
C2359      H2364   1.087       .  S
C2359      C2360   1.365       .  D
In2365     O2367   2.149       .  S
In2365     O2368   2.297       .  S
In2365     O2372   2.125       .  S
In2365     O2373   2.324       .  S
In2365     O2374   2.251       .  S
In2365     O2377   2.269   1_565  S
C2366      O2372   1.273       .  A
C2366      O2374   1.280       .  A
C2366      C2418   1.450       .  S
O2367      C2375   1.267       .  A
O2368      C2375   1.294       .  A
C2369      O2376   1.283       .  A
C2369      O2370   1.275       .  A
C2369      C2408   1.451       .  S
C2371      C2521   1.544       .  S
C2371      O2373   1.266       .  A
C2371      O2377   1.257   1_565  A
In2378     O2380   2.114       .  S
In2378     O2381   2.367       .  S
In2378     O2389   2.309       .  S
In2378     O2383   2.114       .  S
In2378     O2386   2.301       .  S
In2378     O2390   2.186       .  S
C2379      O2385   1.263       .  A
C2379      O2387   1.279       .  A
C2379      C2395   1.456       .  S
O2380      C2388   1.262       .  A
O2381      C2388   1.280       .  A
C2382      O2389   1.284       .  A
C2382      O2383   1.263       .  A
C2382      C2434   1.466       .  S
C2384      C2533   1.525       .  S
C2384      O2386   1.285       .  A
C2384      O2390   1.266       .  A
In2391     O2393   2.156       .  S
In2391     O2394   2.275       .  S
In2391     O2402   2.287       .  S
In2391     O2396   2.098       .  S
In2391     O2398   2.134       .  S
In2391     O2399   2.340       .  S
In2391     O2400   2.277       .  S
In2391     O2403   2.202       .  S
C2392      O2398   1.269       .  A
C2392      O2400   1.280       .  A
C2392      C2405   1.458       .  S
O2393      C2401   1.270       .  A
O2394      C2401   1.290       .  A
C2395      O2402   1.288       .  A
C2395      O2396   1.271       .  A
C2397      C2545   1.516       .  S
C2397      O2399   1.272       .  A
C2397      O2403   1.249       .  A
In2404     O2406   2.147   1_455  S
In2404     O2415   2.240   1_455  S
In2404     O2409   2.140   1_455  S
In2404     O2416   2.265       .  S
C2405      O2411   1.275       .  A
C2405      O2413   1.285       .  A
O2406      C2414   1.269   1_655  A
C2408      O2415   1.279       .  A
C2408      O2409   1.274       .  A
C2410      O2412   1.269       .  A
C2414      C2557   1.520       .  S
In2417     O2419   2.181       .  S
In2417     O2420   2.272       .  S
In2417     O2428   2.271       .  S
In2417     O2422   2.103       .  S
In2417     O2424   2.114       .  S
In2417     O2425   2.328       .  S
In2417     O2426   2.249       .  S
In2417     O2429   2.264       .  S
C2418      O2424   1.276       .  A
C2418      O2426   1.288       .  A
O2419      C2427   1.274       .  A
O2420      C2427   1.292       .  A
C2421      O2428   1.282       .  A
C2421      O2422   1.272       .  A
C2421      C2431   1.455       .  S
C2423      O2425   1.265       .  A
C2423      O2429   1.252       .  A
C2427      C2581   1.522       .  S
In2430     O2432   2.126       .  S
In2430     O2433   2.373       .  S
In2430     O2437   2.097       .  S
In2430     O2438   2.310       .  S
In2430     O2439   2.294       .  S
In2430     O2442   2.174       .  S
C2431      O2437   1.264       .  A
C2431      O2439   1.285       .  A
O2432      C2440   1.259       .  A
O2433      C2440   1.281       .  A
C2434      O2441   1.279       .  A
C2434      O2435   1.262       .  A
C2436      O2438   1.286       .  A
C2436      O2442   1.266       .  A
C2440      C2569   1.532       .  S
In2443     O2445   2.295       .  S
In2443     O2448   2.128       .  S
In2443     O2450   2.140       .  S
In2443     O2452   2.252       .  S
In2443     O2455   2.147       .  S
C2444      O2450   1.277       .  A
C2444      O2452   1.282       .  A
C2444      C2509   1.459       .  S
O2446      C2453   1.265       .  A
C2447      O2448   1.274   1_545  A
C2447      C2457   1.455       .  S
C2449      O2451   1.293       .  A
In2456     O2458   2.167   1_545  S
In2456     O2467   2.274   1_545  S
In2456     O2461   2.129   1_545  S
In2456     O2463   2.131   1_545  S
In2456     O2468   2.269       .  S
C2457      O2463   1.276   1_545  A
O2459      C2466   1.287       .  A
C2460      O2467   1.280       .  A
C2460      O2461   1.273       .  A
C2460      C2473   1.460       .  S
C2462      O2464   1.279       .  A
In2469     O2471   2.166   1_655  S
In2469     O2472   2.308       .  S
In2469     O2477   2.366       .  S
In2469     O2478   2.289       .  S
In2469     O2481   2.126   1_655  S
C2470      O2478   1.279       .  A
C2470      C2486   1.455       .  S
O2471      C2479   1.265   1_455  A
O2472      C2479   1.287       .  A
C2473      O2480   1.285       .  A
C2473      O2474   1.264       .  A
C2475      O2477   1.280       .  A
C2475      O2481   1.258   1_655  A
In2482     O2484   2.263       .  S
In2482     O2485   2.326       .  S
In2482     O2493   2.263       .  S
In2482     O2490   2.269       .  S
In2482     O2494   2.159   1_655  S
C2483      O2489   1.273       .  A
C2483      O2491   1.282       .  A
C2483      C2499   1.465       .  S
O2484      C2492   1.251       .  A
O2485      C2492   1.266       .  A
C2486      O2493   1.287       .  A
C2488      O2490   1.292       .  A
C2488      O2494   1.273   1_655  A
In2495     O2497   2.176       .  S
In2495     O2498   2.304       .  S
In2495     O2506   2.308       .  S
In2495     O2500   2.112       .  S
In2495     O2502   2.105       .  S
In2495     O2503   2.379       .  S
In2495     O2504   2.313       .  S
In2495     O2507   2.116       .  S
C2496      O2502   1.260       .  A
C2496      O2504   1.279       .  A
C2496      C2512   1.458       .  S
O2497      C2505   1.266       .  A
O2498      C2505   1.285       .  A
C2499      O2506   1.285       .  A
C2499      O2500   1.261       .  A
C2501      O2503   1.282       .  A
C2501      O2507   1.261       .  A
C2505      C2653   1.521       .  S
In2508     O2510   2.119       .  S
In2508     O2511   2.368       .  S
In2508     O2519   2.309       .  S
In2508     O2513   2.091       .  S
In2508     O2515   2.145       .  S
In2508     O2516   2.310       .  S
In2508     O2517   2.283       .  S
In2508     O2520   2.161       .  S
C2509      O2515   1.263       .  A
C2509      O2517   1.279       .  A
O2510      C2518   1.260       .  A
O2511      C2518   1.281       .  A
C2512      O2519   1.283       .  A
C2512      O2513   1.262       .  A
C2514      O2516   1.286       .  A
C2514      O2520   1.264       .  A
C2518      C2617   1.529       .  S
C2521      C2522   1.511       .  S
C2521      C2525   1.523       .  S
C2522      H2529   1.086       .  S
C2522      C2523   1.384       .  D
C2523      C2524   1.599       .  S
C2523      C2598   1.497       .  S
C2524      C2526   1.543       .  S
C2524      H2530   1.110       .  S
C2525      H2531   1.075       .  S
C2525      C2526   1.375       .  D
C2526      C2583   1.531       .  S
C2527      H2532   1.086       .  S
C2527      C2528   1.372       .  D
C2528      C2564   1.554       .  S
C2533      C2534   1.500       .  S
C2533      C2537   1.552       .  S
C2534      H2541   1.086       .  S
C2534      C2535   1.365       .  D
C2535      C2536   1.579       .  S
C2535      C2574   1.527       .  S
C2536      C2538   1.549       .  S
C2536      H2542   1.110       .  S
C2537      H2543   1.085       .  S
C2537      C2538   1.377       .  D
C2538      C2610   1.496       .  S
C2539      H2544   1.084       .  S
C2539      C2540   1.386       .  D
C2540      C2547   1.556       .  S
C2545      C2546   1.520       .  S
C2545      C2551   1.543       .  S
C2545      C2549   1.519       .  S
C2546      H2553   1.088       .  S
C2546      C2547   1.372       .  D
C2547      C2548   1.607       .  S
C2548      C2552   1.539       .  S
C2548      C2550   1.582       .  S
C2548      H2554   1.110       .  S
C2549      H2555   1.086       .  S
C2549      C2550   1.378       .  D
C2550      C2655   1.482       .  S
C2551      H2556   1.079       .  S
C2551      C2552   1.364       .  D
C2552      C2559   1.537       .  S
C2557      C2563   1.515   1_455  S
C2557      C2561   1.533       .  S
C2558      H2565   1.079       .  S
C2558      C2559   1.375       .  D
C2560      C2564   1.578   1_455  S
C2560      C2562   1.564       .  S
C2560      H2566   1.110       .  S
C2561      C2562   1.376       .  D
C2563      H2568   1.086       .  S
C2563      C2564   1.378       .  D
C2569      C2570   1.513       .  S
C2569      C2575   1.516       .  S
C2570      H2577   1.086       .  S
C2570      C2571   1.393       .  D
C2571      C2572   1.613       .  S
C2572      C2576   1.597       .  S
C2572      H2578   1.110       .  S
C2573      H2579   1.085       .  S
C2573      C2574   1.367       .  D
C2575      H2580   1.089       .  S
C2575      C2576   1.363       .  D
C2576      C2588   1.560       .  S
C2581      C2582   1.498       .  S
C2581      C2587   1.506       .  S
C2581      C2585   1.548       .  S
C2582      H2589   1.083       .  S
C2582      C2583   1.365       .  D
C2583      C2584   1.585       .  S
C2584      C2588   1.586       .  S
C2584      C2586   1.548       .  S
C2584      H2590   1.110       .  S
C2585      H2591   1.086       .  S
C2585      C2586   1.372       .  D
C2586      C2622   1.489       .  S
C2587      H2592   1.083       .  S
C2587      C2588   1.387       .  D
C2593      C2594   1.498       .  S
C2593      C2599   1.504       .  S
C2593      C2597   1.549       .  S
C2594      H2601   1.085       .  S
C2594      C2595   1.381       .  D
C2595      C2596   1.593       .  S
C2595      C2612   1.551       .  S
C2596      C2600   1.585       .  S
C2596      C2598   1.555       .  S
C2596      H2602   1.110       .  S
C2597      H2603   1.086   1_565  S
C2597      C2598   1.374       .  D
C2599      H2604   1.086       .  S
C2599      C2600   1.363       .  D
C2600      C2619   1.541       .  S
C2605      C2606   1.524       .  S
C2605      C2611   1.518       .  S
C2605      C2609   1.517       .  S
C2606      H2613   1.076       .  S
C2606      C2607   1.377       .  D
C2607      C2608   1.546       .  S
C2607      C2646   1.538       .  S
C2608      C2612   1.587       .  S
C2608      C2610   1.595       .  S
C2608      H2614   1.110       .  S
C2609      C2610   1.388       .  D
C2611      H2616   1.086   1_565  S
C2611      C2612   1.371       .  D
C2617      C2618   1.524       .  S
C2617      C2623   1.513       .  S
C2617      C2621   1.511       .  S
C2618      H2625   1.084       .  S
C2618      C2619   1.371       .  D
C2619      C2620   1.543       .  S
C2620      C2624   1.589       .  S
C2620      C2622   1.608       .  S
C2620      H2626   1.110       .  S
C2621      H2627   1.085       .  S
C2621      C2622   1.393       .  D
C2623      H2628   1.088       .  S
C2623      C2624   1.362       .  D
C2624      C2660   1.548       .  S
C2629      C2630   1.536       .  S
C2629      C2635   1.521       .  S
C2630      H2637   1.079       .  S
C2630      C2631   1.364       .  D
C2631      C2632   1.542       .  S
C2631      C2658   1.533       .  S
C2632      C2636   1.603       .  S
C2632      C2634   1.582       .  S
C2632      H2638   1.110       .  S
C2633      H2639   1.086       .  S
C2635      H2640   1.088       .  S
C2635      C2636   1.377       .  D
C2636      C2648   1.555       .  S
C2641      C2647   1.502       .  S
C2641      C2645   1.502       .  S
C2642      H2649   1.086       .  S
C2643      C2644   1.554       .  S
C2644      C2648   1.587       .  S
C2644      C2646   1.588       .  S
C2644      H2650   1.110       .  S
C2645      H2651   1.083       .  S
C2645      C2646   1.364       .  D
C2647      C2648   1.382       .  D
C2653      C2654   1.528       .  S
C2653      C2659   1.513       .  S
C2653      C2657   1.495       .  S
C2654      H2661   1.086       .  S
C2654      C2655   1.371       .  D
C2655      C2656   1.563       .  S
C2656      C2660   1.569       .  S
C2656      C2658   1.584       .  S
C2656      H2662   1.110       .  S
C2657      H2663   1.079       .  S
C2657      C2658   1.377       .  D
C2659      H2664   1.085       .  S
C2659      C2660   1.383       .  D
