geometry optimzed in LAMMPS
_audit_creation_date              2020-11-30 
_audit_creation_method            'lammps2cif' 
_symmetry_space_group_name_H-M    'P1' 
_symmetry_Int_Tables_number       1 
_symmetry_cell_setting            triclinic 
loop_ 
_symmetry_equiv_pos_as_xyz 
  x,y,z 
_cell_length_a                    39.84925517 
_cell_length_b                    40.00586034682667 
_cell_length_c                    45.33761962395143 
_cell_angle_alpha                 75.00435113650776 
_cell_angle_beta                  87.72499806536749 
_cell_angle_gamma                 96.38051225309881 
loop_ 
_atom_site_label 
_atom_site_type_symbol 
_atom_site_fract_x 
_atom_site_fract_y 
_atom_site_fract_z 
_atom_site_charge 
O1          O  0.48583919  0.18865766  0.02301520    -0.72700
O2          O  0.47184160  0.28986393  0.50899887    -0.72700
O3          O  0.46418149  0.24181639  0.47671092    -0.72700
O4          O  0.48823970  0.23610060  0.05674357    -0.72800
O5          O  0.00598378  0.25147131  0.04676455    -0.72700
O6          O  0.04454617  0.26614320  0.45724261    -0.72700
O7          O  0.02659771  0.31081356  0.48925357    -0.72700
O8          O  0.02781196  0.20817218  0.01530674    -0.72700
Ni9        Ni  0.47521633  0.23533914  0.01650381     1.25400
Ni10       Ni  0.03509531  0.26294759  0.49959059     1.25400
C11         C  0.00341137  0.18554789  0.01293490     0.89500
C12         C  0.99704305  0.31916114  0.48293822     0.89400
C13         C  0.48537125  0.25041690  0.45329712     0.89500
C14         C  0.51886853  0.24570905  0.06148740     0.89600
O15         O  0.00052379  0.25667865  0.19872845    -0.72700
O16         O  0.03189491  0.25976017  0.27638109    -0.72700
O17         O  0.02528753  0.21094416  0.24482117    -0.72700
O18         O  0.00731116  0.30554934  0.23067380    -0.72800
O19         O  0.48691757  0.30014879  0.24206369    -0.72700
O20         O  0.48555640  0.20027319  0.25875361    -0.72700
O21         O  0.47102835  0.24539009  0.29192818    -0.72700
O22         O  0.50037770  0.25496051  0.20907066    -0.72700
Ni23       Ni  0.01808129  0.25887638  0.23682285     1.25400
Ni24       Ni  0.48402267  0.25004697  0.25005144     1.25400
C25         C  0.53192609  0.25845013  0.20117428     0.89500
C26         C  0.49314841  0.24695659  0.31126414     0.89400
C27         C  0.51280559  0.18709395  0.26681662     0.89500
C28         C  0.51412830  0.31905067  0.24521629     0.89600
O29         O  0.41968006  0.49670468  0.47579324    -0.79100
O30         O  0.07176805  0.49697359  0.47538820    -0.63800
O31         O  0.47569297  0.47049111  0.00234900    -1.10400
C32         C  0.50265761  0.08542004  0.01762428     1.07800
O33         O  0.07871411  0.00761644  0.02262307    -0.77000
O34         O  0.03310572  0.02352369  0.06475824    -0.64600
Ni35       Ni  0.44586904  0.45841645  0.47774995     1.34900
C36         C  0.00400203  0.00882091  0.07715102     0.86500
O37         O  0.02630814  0.44016920  0.48098840    -0.77600
O38         O  0.46966791  0.41858636  0.48028687    -0.87800
C39         C  0.08886701  0.49320490  0.99945528     0.86100
O40         O  0.46376634  0.47733855  0.43512940    -0.66000
O41         O  0.02596571  0.08291641  0.02106975    -0.85300
C42         C  0.49250154  0.49251119  0.42227887     0.86900
C43         C  0.00288312  0.41589615  0.48037126     1.08500
H44         H  0.02443776  0.04706730  0.47891275     0.40300
O45         O  0.02220106  0.02954368  0.49831096    -1.08000
O46         O  0.48022706  0.00053381  0.05624695    -0.64600
Ni47       Ni  0.47462808  0.01728061  0.01021243     1.26300
O48         O  0.01664191  0.50196344  0.44035011    -0.64900
O49         O  0.47718760  0.06382618  0.01542433    -0.77200
C50         C  0.40968324  0.00840373  0.50002028     0.86300
O51         O  0.42684788  0.01042472  0.01972537    -0.64300
Ni52       Ni  0.05088449  0.04429534  0.02220779     1.27400
Ni53       Ni  0.02436762  0.48612458  0.48596279     1.26100
H54         H  0.47419414  0.45344233  0.02199575     0.40800
O55         O  0.41620647  0.50389907  0.22576634    -0.79100
O56         O  0.06615103  0.48730463  0.22793853    -0.63800
O57         O  0.47131572  0.47418839  0.25154398    -1.10400
C58         C  0.49805374  0.09002193  0.26673922     1.07800
O59         O  0.07698734  0.00474593  0.27290193    -0.77000
O60         O  0.03268184  0.02302383  0.31449315    -0.64600
Ni61       Ni  0.43771304  0.46285353  0.22559686     1.34900
C62         C  0.00383272  0.00825955  0.32748267     0.86500
O63         O  0.01613341  0.43249647  0.23337049    -0.77600
O64         O  0.45681399  0.42059218  0.22621693    -0.87800
C65         C  0.08631564  0.49288047  0.24783310     0.86100
O66         O  0.45757276  0.48266592  0.18369590    -0.66000
O67         O  0.02638010  0.08215192  0.26992025    -0.85300
C68         C  0.48806807  0.49175065  0.17235486     0.86900
C69         C  0.99072131  0.41048599  0.23171671     1.08500
H70         H  0.01811775  0.04235662  0.22889178     0.40300
O71         O  0.01728580  0.02511204  0.24836837    -1.08000
O72         O  0.48033869  0.00441352  0.30643021    -0.64600
Ni73       Ni  0.47346059  0.02023499  0.26050536     1.26300
O74         O  0.01226458  0.49579606  0.19220539    -0.64900
O75         O  0.47345276  0.06722141  0.26485472    -0.77200
C76         C  0.40562095  0.00423988  0.25109126     0.86300
O77         O  0.42571478  0.01085008  0.27068549    -0.64300
Ni78       Ni  0.05030335  0.04252396  0.27176508     1.27400
Ni79       Ni  0.01823785  0.47932623  0.23802347     1.26100
H80         H  0.46801810  0.45633972  0.27071488     0.40800
O81         O  0.20868041  0.03041101  0.50595761    -0.72700
O82         O  0.30350347  0.02375554  0.49826280    -0.72700
O83         O  0.25599605  0.04391895  0.45820851    -0.72700
O84         O  0.25325960  0.01715852  0.04207483    -0.72800
O85         O  0.24027692  0.45092314  0.04566608    -0.72700
O86         O  0.24410585  0.49633458  0.45035747    -0.72700
O87         O  0.28782666  0.45996120  0.99855639    -0.72700
O88         O  0.19323581  0.46971956  0.00476209    -0.72700
Ni89       Ni  0.25644430  0.02899345  0.50196309     1.25400
Ni90       Ni  0.24004984  0.46265234  0.00189372     1.25400
C91         C  0.18449343  0.49921152  0.00611530     0.89500
C92         C  0.31288956  0.49965799  0.49131502     0.89400
C93         C  0.25089603  0.52910377  0.43806849     0.89500
C94         C  0.24667401  0.47441306  0.05987998     0.89600
O95         O  0.30029490  0.02075972  0.23887876    -0.72700
O96         O  0.20607534  0.03275169  0.23787079    -0.72700
O97         O  0.25514930  0.03945095  0.27568348    -0.72700
O98         O  0.25099500  0.01401121  0.20035190    -0.72800
O99         O  0.24494307  0.45601493  0.22945925    -0.72700
O100        O  0.24971233  0.49193887  0.29991430    -0.72700
O101        O  0.19867961  0.46596370  0.27154114    -0.72700
O102        O  0.29578649  0.48222509  0.25860259    -0.72700
Ni103      Ni  0.25363453  0.02869884  0.23720715     1.25400
Ni104      Ni  0.24737151  0.47206970  0.26590102     1.25400
C105        C  0.30889076  0.99065249  0.25135513     0.89500
C106        C  0.18375918  0.00676019  0.25027703     0.89400
C107        C  0.24861709  0.01558992  0.30071467     0.89500
C108        C  0.24336453  0.98200556  0.20064762     0.89600
C109        C  0.25156390  0.54120046  0.40548234    -0.16700
C110        C  0.25169874  0.54566745  0.37821964     0.07300
C111        C  0.25130038  0.54405990  0.34761562     0.09200
C112        C  0.24926802  0.02520642  0.32887872    -0.17600
C113        C  0.24565716  0.46473671  0.09263158    -0.16700
C114        C  0.24446203  0.46025925  0.11997012     0.07300
C115        C  0.24309921  0.46007991  0.15111132     0.09200
C116        C  0.24160318  0.97323233  0.17215536    -0.17600
C117        C  0.12310341  0.49257119  0.24207079    -0.14700
C118        C  0.14395195  0.48459081  0.26478545    -0.29800
H119        H  0.13351385  0.50006998  0.21843781     0.14400
H120        H  0.14184824  0.03642499  0.25619451     0.14900
C121        C  0.36966314  0.00924450  0.25444195    -0.14700
C122        C  0.34494564  0.98536811  0.25050608    -0.29800
H123        H  0.36334467  0.03223325  0.26090963     0.14400
H124        H  0.35133845  0.96089829  0.24699263     0.14900
C125        C  0.12438250  0.48667773  0.99684833    -0.14700
C126        C  0.14853752  0.50374599  0.00918051    -0.29800
H127        H  0.13109699  0.46938795  0.98321982     0.14400
H128        H  0.14429772  0.02668022  0.52180694     0.14900
C129        C  0.34900375  0.49522245  0.48860514    -0.14700
C130        C  0.37326514  0.01146241  0.50394068    -0.29800
H131        H  0.35770395  0.97398742  0.48036365     0.14400
H132        H  0.36269151  0.52244089  0.01501955     0.14900
C133        C  0.49722221  0.49918324  0.38709821    -0.11500
C134        C  0.99934139  0.00177637  0.36280510    -0.13100
C135        C  0.99837615  0.00173015  0.11236194    -0.11500
C136        C  0.49435491  0.49774598  0.13731527    -0.13100
C137        C  0.99711332  0.37468765  0.23199721    -0.14700
C138        C  0.97180492  0.34822069  0.23610614    -0.29800
H139        H  0.46582794  0.35907074  0.22547158     0.14400
H140        H  0.94571245  0.35288091  0.23920619     0.14900
C141        C  0.51543792  0.14956320  0.27113440    -0.14700
C142        C  0.49084155  0.12582272  0.26650026    -0.29800
H143        H  0.54009519  0.14161265  0.27686412     0.14400
H144        H  0.46590019  0.13314666  0.26113830     0.14900
C145        C  0.48207197  0.24492664  0.34201885    -0.16700
C146        C  0.47492765  0.24491420  0.36796994     0.06300
C147        C  0.47156141  0.24639891  0.39847125     0.09200
C148        C  0.47455894  0.24827976  0.42421828    -0.17600
C149        C  0.54120074  0.25880366  0.17042486    -0.16700
C150        C  0.54145535  0.25595948  0.14471727     0.07300
C151        C  0.53515952  0.25102799  0.11579849     0.09200
C152        C  0.52740259  0.24745018  0.09137045    -0.17600
C153        C  0.01287411  0.38144267  0.48049708    -0.14700
C154        C  0.99009446  0.35551980  0.47725754    -0.29800
H155        H  0.03877310  0.37678737  0.48499320     0.14400
H156        H  0.46070551  0.35382716  0.49646073     0.14900
C157        C  0.49635972  0.12074102  0.01888812    -0.14700
C158        C  0.52175877  0.14605686  0.01871485    -0.29800
H159        H  0.96891701  0.13364059  0.51459676     0.14400
H160        H  0.54789809  0.14082706  0.01774392     0.14900
O161        O  0.48886501  0.19520031  0.52181682    -0.72700
O162        O  0.46801612  0.28328554  0.00841164    -0.72700
O163        O  0.46656889  0.23587734  0.97505163    -0.72700
O164        O  0.49714301  0.24347105  0.55452194    -0.72800
O165        O  0.02183852  0.25885413  0.54142733    -0.72700
O166        O  0.03779926  0.26154955  0.96399706    -0.72700
O167        O  0.01594979  0.30484413  0.99553127    -0.72700
O168        O  0.03935638  0.21394284  0.50951649    -0.72700
Ni169      Ni  0.47867182  0.24194272  0.51640498     1.25400
Ni170      Ni  0.02379903  0.25696873  0.00582217     1.25400
C171        C  0.01417108  0.19087352  0.50983692     0.89500
C172        C  0.98729305  0.31396325  0.98700126     0.89400
C173        C  0.49057312  0.24469227  0.95386833     0.89500
C174        C  0.52851556  0.25349648  0.55612827     0.89600
O175        O  0.01670372  0.25828171  0.70094868    -0.72700
O176        O  0.04172698  0.25951905  0.78084535    -0.72700
O177        O  0.03893638  0.21142193  0.74801430    -0.72700
O178        O  0.01895412  0.30594111  0.73405500    -0.72800
O179        O  0.49938534  0.30275381  0.73983942    -0.72700
O180        O  0.49602161  0.20324658  0.75541511    -0.72700
O181        O  0.48462322  0.24784753  0.78969328    -0.72700
O182        O  0.51044642  0.25818793  0.70567076    -0.72700
Ni183      Ni  0.03100244  0.25945673  0.74029245     1.25400
Ni184      Ni  0.49568750  0.25292074  0.74729035     1.25400
C185        C  0.54178801  0.26171949  0.69684367     0.89500
C186        C  0.50762890  0.24838340  0.80844764     0.89400
C187        C  0.52305560  0.18936913  0.76267006     0.89500
C188        C  0.52691994  0.32138621  0.74249012     0.89600
O189        O  0.41724852  0.49134027  0.97606990    -0.79100
O190        O  0.06955012  0.48925661  0.97856083    -0.63800
O191        O  0.47868475  0.47580619  0.50130270    -1.10400
C192        C  0.50466745  0.09112941  0.51671574     1.07800
O193        O  0.08007696  0.00559839  0.52437533    -0.77000
O194        O  0.03535562  0.02352946  0.56575938    -0.64600
Ni195      Ni  0.44355712  0.45316887  0.97803749     1.34900
C196        C  0.00553991  0.01064154  0.57750097     0.86500
O197        O  0.02162502  0.43456291  0.98359933    -0.77600
O198        O  0.46710007  0.41299419  0.98103048    -0.87800
C199        C  0.09134717  0.50198485  0.49580116     0.86100
O200        O  0.46249091  0.47268463  0.93555034    -0.66000
O201        O  0.03230462  0.08496916  0.52224941    -0.85300
C202        C  0.49164070  0.48753888  0.92329836     0.86900
C203        C  0.99723062  0.41156798  0.98220606     1.08500
H204        H  0.01952726  0.04434522  0.97845580     0.40300
O205        O  0.01866358  0.02699841  0.99788408    -1.08000
O206        O  0.48407508  0.00590114  0.55589156    -0.64600
Ni207      Ni  0.47760614  0.02228614  0.51007617     1.26300
O208        O  0.01584580  0.49725445  0.94190617    -0.64900
O209        O  0.47943871  0.06905995  0.51486989    -0.77200
C210        C  0.40674047  0.00509554  0.99974474     0.86300
O211        O  0.42965270  0.01464181  0.51986646    -0.64300
Ni212      Ni  0.05469395  0.04435429  0.52366335     1.27400
Ni213      Ni  0.02188843  0.48107093  0.98796823     1.26100
H214        H  0.47783314  0.45865995  0.52083643     0.40800
O215        O  0.42082933  0.50002162  0.72420924    -0.79100
O216        O  0.07076624  0.48669752  0.72724489    -0.63800
O217        O  0.47745728  0.47436756  0.75065509    -1.10400
C218        C  0.50286225  0.09192178  0.76533498     1.07800
O219        O  0.07776140  0.99643633  0.77579665    -0.77000
O220        O  0.03510775  0.01961844  0.81539381    -0.64600
Ni221      Ni  0.44490762  0.46069813  0.72481397     1.34900
C222        C  0.00527041  0.00721235  0.82742467     0.86500
O223        O  0.02126052  0.43354543  0.73165396    -0.77600
O224        O  0.46621001  0.41976007  0.72561354    -0.87800
C225        C  0.09062558  0.49035195  0.74788755     0.86100
O226        O  0.46478493  0.48146558  0.68312680    -0.66000
O227        O  0.03501622  0.07969487  0.76970995    -0.85300
C228        C  0.49499655  0.49270235  0.67178474     0.86900
C229        C  0.99647759  0.41056492  0.73113293     1.08500
H230        H  0.02409654  0.03887023  0.72909038     0.40300
O231        O  0.02151789  0.02190134  0.74884247    -1.08000
O232        O  0.47969545  0.00709328  0.80443723    -0.64600
Ni233      Ni  0.47595326  0.02333904  0.75799360     1.26300
O234        O  0.01655500  0.49733325  0.69109289    -0.64900
O235        O  0.47769319  0.07073339  0.76172015    -0.77200
C236        C  0.40854395  0.01057740  0.74496345     0.86300
O237        O  0.42767955  0.01687999  0.76535559    -0.64300
Ni238      Ni  0.05498797  0.03718787  0.77310604     1.27400
Ni239      Ni  0.02301201  0.47987501  0.73692026     1.26100
H240        H  0.47447960  0.45669704  0.76994676     0.40800
O241        O  0.20822442  0.03767139  0.00051466    -0.72700
O242        O  0.30220918  0.02548931  0.99689523    -0.72700
O243        O  0.25709921  0.04617750  0.95466757    -0.72700
O244        O  0.25591012  0.01000594  0.54515621    -0.72800
O245        O  0.24310926  0.46143877  0.53722645    -0.72700
O246        O  0.24071572  0.47816417  0.95838218    -0.72700
O247        O  0.29082034  0.47434103  0.49000601    -0.72700
O248        O  0.19640584  0.48363605  0.49709648    -0.72700
Ni249      Ni  0.25571932  0.03364125  0.99852599     1.25400
Ni250      Ni  0.24314890  0.47698896  0.49354161     1.25400
C251        C  0.18741986  0.51228149  0.50044278     0.89500
C252        C  0.30977114  0.48628524  0.99751240     0.89400
C253        C  0.24739770  0.51040729  0.94408139     0.89500
C254        C  0.24948800  0.48312715  0.55322982     0.89600
O255        O  0.30163882  0.02271824  0.73522707    -0.72700
O256        O  0.20624885  0.02978973  0.73537107    -0.72700
O257        O  0.25581564  0.04110265  0.77176142    -0.72700
O258        O  0.25198640  0.01117201  0.69837175    -0.72800
O259        O  0.24396535  0.45600108  0.72197555    -0.72700
O260        O  0.24400828  0.47903970  0.79856288    -0.72700
O261        O  0.19646256  0.47223709  0.75853381    -0.72700
O262        O  0.29151103  0.46313317  0.76138961    -0.72700
Ni263      Ni  0.25429425  0.02816753  0.73411725     1.25400
Ni264      Ni  0.24354134  0.46557463  0.76103268     1.25400
C265        C  0.31166594  0.99361510  0.74871660     0.89500
C266        C  0.18500536  0.00321444  0.74882517     0.89400
C267        C  0.25065343  0.01803802  0.79742731     0.89500
C268        C  0.24606440  0.97858848  0.70010482     0.89600
C269        C  0.24815413  0.51980365  0.91142758    -0.16700
C270        C  0.24884014  0.52348398  0.88424629     0.07300
C271        C  0.24957870  0.52298764  0.85335234     0.09200
C272        C  0.25190675  0.02866931  0.82511962    -0.17600
C273        C  0.24921334  0.47100730  0.58571638    -0.16700
C274        C  0.24954407  0.46637806  0.61292752     0.07300
C275        C  0.25014396  0.46728533  0.64363466     0.09200
C276        C  0.24534204  0.96777207  0.67254283    -0.17600
C277        C  0.12613517  0.48374850  0.74484751    -0.14700
C278        C  0.15138225  0.50758985  0.74777473    -0.29800
H279        H  0.13163940  0.46006461  0.73917154     0.14400
H280        H  0.14184746  0.03247195  0.75131926     0.14900
C281        C  0.37261190  0.01617425  0.74664061    -0.14700
C282        C  0.34811122  0.98973415  0.74798906    -0.29800
H283        H  0.36622907  0.04152779  0.74778766     0.14400
H284        H  0.35506459  0.96385495  0.74949356     0.14900
C285        C  0.12738158  0.49776330  0.49212612    -0.14700
C286        C  0.15123228  0.51602134  0.50382568    -0.29800
H287        H  0.13460010  0.48071406  0.47844833     0.14400
H288        H  0.14303115  0.03708656  0.01339097     0.14900
C289        C  0.34599201  0.48276459  0.99412260    -0.14700
C290        C  0.37094315  0.01024706  0.00340538    -0.29800
H291        H  0.35321123  0.97048758  0.98311547     0.14400
H292        H  0.36582646  0.52830915  0.51593849     0.14900
C293        C  0.49732656  0.49532852  0.88789720    -0.11500
C294        C  0.99935409  0.00102398  0.86256423    -0.13100
C295        C  0.99966616  0.00224020  0.61285893    -0.11500
C296        C  0.50095795  0.50001031  0.63655215    -0.13100
C297        C  0.00452839  0.37521489  0.73155181    -0.14700
C298        C  0.98062093  0.34741403  0.73706817    -0.29800
H299        H  0.47819124  0.36004720  0.72328650     0.14400
H300        H  0.95421158  0.35073440  0.74069558     0.14900
C301        C  0.52396768  0.15151320  0.76753113    -0.14700
C302        C  0.49783676  0.12854910  0.76412788    -0.29800
H303        H  0.54832104  0.14253338  0.77286570     0.14400
H304        H  0.47332561  0.13712845  0.75883387     0.14900
C305        C  0.49784516  0.24495292  0.83983321    -0.16700
C306        C  0.49049003  0.24314467  0.86620191     0.06300
C307        C  0.48477762  0.24248251  0.89713051     0.09200
C308        C  0.48428366  0.24308813  0.92348520    -0.17600
C309        C  0.55036439  0.26330676  0.66560836    -0.16700
C310        C  0.55200540  0.26207982  0.63940906     0.07300
C311        C  0.54784648  0.25882105  0.60961685     0.09200
C312        C  0.54033149  0.25584668  0.58493933    -0.17600
C313        C  0.00525258  0.37612243  0.98345495    -0.14700
C314        C  0.98131010  0.35067700  0.98107218    -0.29800
H315        H  0.03087040  0.37041113  0.98801675     0.14400
H316        H  0.45721811  0.34763673  0.99584229     0.14900
C317        C  0.49816799  0.12658509  0.51749298    -0.14700
C318        C  0.52364939  0.15259035  0.51487380    -0.29800
H319        H  0.95991335  0.12773714  0.01385607     0.14400
H320        H  0.54973785  0.14778279  0.51207456     0.14900
O321        O  0.47397141  0.69168270  0.00452853    -0.72700
O322        O  0.46410850  0.79305005  0.48349021    -0.72700
O323        O  0.48493843  0.75000893  0.45086777    -0.72700
O324        O  0.45315705  0.73622482  0.03580184    -0.72800
O325        O  0.01353514  0.75279422  0.04434905    -0.72700
O326        O  0.03094372  0.76804487  0.45575458    -0.72700
O327        O  0.01994992  0.80887062  0.49318849    -0.72700
O328        O  0.03624249  0.70921625  0.01352809    -0.72700
Ni329      Ni  0.46492531  0.73937365  0.99368779     1.25400
Ni330      Ni  0.02915223  0.76166075  0.49879120     1.25400
C331        C  0.01194087  0.68670307  0.01059401     0.89500
C332        C  0.98959411  0.81665515  0.49185770     0.89400
C333        C  0.51621651  0.75870942  0.44163279     0.89500
C334        C  0.47570486  0.74303642  0.05343198     0.89600
O335        O  0.01106988  0.75812383  0.19842394    -0.72700
O336        O  0.03197652  0.76013008  0.27936948    -0.72700
O337        O  0.03060736  0.71145476  0.24723632    -0.72700
O338        O  0.01316374  0.80659001  0.23096787    -0.72800
O339        O  0.46699999  0.78903821  0.25096617    -0.72700
O340        O  0.48413718  0.69391483  0.26392640    -0.72700
O341        O  0.49032969  0.74185762  0.29693598    -0.72700
O342        O  0.46062394  0.74111072  0.21816384    -0.72700
Ni343      Ni  0.02366476  0.75963781  0.23835589     1.25400
Ni344      Ni  0.47366317  0.74083425  0.25825640     1.25400
C345        C  0.48236777  0.74996572  0.19519321     0.89500
C346        C  0.52140283  0.75174260  0.29968214     0.89400
C347        C  0.51338442  0.68755991  0.25564712     0.89500
C348        C  0.49063371  0.81402599  0.23930461     0.89600
O349        O  0.42083058  0.00057689  0.47614880    -0.79100
O350        O  0.07109709  0.99316595  0.47994637    -0.63800
O351        O  0.47451581  0.97227465  0.00142871    -1.10400
C352        C  0.49630520  0.58567281  0.01559015     1.07800
O353        O  0.07776336  0.50150799  0.02316155    -0.77000
O354        O  0.03341325  0.52082843  0.06386682    -0.64600
Ni355      Ni  0.44491497  0.96101068  0.47792258     1.34900
C356        C  0.00358366  0.50793542  0.07548104     0.86500
O357        O  0.02323536  0.93816953  0.48571334    -0.77600
O358        O  0.46673401  0.91989732  0.48017164    -0.87800
C359        C  0.08964845  0.99995983  0.99855133     0.86100
O360        O  0.46339803  0.97978760  0.43547146    -0.66000
O361        O  0.03082622  0.58155152  0.01992192    -0.85300
C362        C  0.49271351  0.99342201  0.42299732     0.86900
C363        C  0.99880158  0.91455754  0.48588077     1.08500
H364        H  0.02239628  0.54789602  0.47532693     0.40300
O365        O  0.02103098  0.53034804  0.49468002    -1.08000
O366        O  0.47928928  0.50019164  0.05601126    -0.64600
Ni367      Ni  0.47312540  0.51552387  0.01003021     1.26300
O368        O  0.01659509  0.00061000  0.44393440    -0.64900
O369        O  0.47238152  0.56222965  0.01395262    -0.77200
C370        C  0.40870295  0.50570425  0.49916889     0.86300
O371        O  0.42551005  0.50605809  0.01967968    -0.64300
Ni372      Ni  0.05295037  0.54071845  0.02179193     1.27400
Ni373      Ni  0.02349062  0.98474139  0.48991628     1.26100
H374        H  0.47257135  0.95476374  0.02082657     0.40800
O375        O  0.41619695  0.99518531  0.22758460    -0.79100
O376        O  0.06714739  0.98928044  0.22978115    -0.63800
O377        O  0.47588559  0.97515712  0.25234242    -1.10400
C378        C  0.50208664  0.58810838  0.26541345     1.07800
O379        O  0.07524693  0.50017949  0.27201272    -0.77000
O380        O  0.03286555  0.52206029  0.31233800    -0.64600
Ni381      Ni  0.44313895  0.95757671  0.22867930     1.34900
C382        C  0.00372094  0.50820231  0.32498364     0.86500
O383        O  0.01890870  0.93379020  0.23455300    -0.77600
O384        O  0.46712158  0.91793102  0.23053771    -0.87800
C385        C  0.08727929  0.99535942  0.24949615     0.86100
O386        O  0.46099274  0.97705775  0.18587187    -0.66000
O387        O  0.02930673  0.58157618  0.26755524    -0.85300
C388        C  0.49002843  0.99159147  0.17307437     0.86900
C389        C  0.99419061  0.91122324  0.23246906     1.08500
H390        H  0.01910427  0.54167449  0.22672817     0.40300
O391        O  0.01761968  0.52442453  0.24624782    -1.08000
O392        O  0.47989828  0.50161597  0.30621534    -0.64600
Ni393      Ni  0.47299644  0.51900099  0.26059732     1.26300
O394        O  0.01327775  0.99706470  0.19397397    -0.64900
O395        O  0.47643133  0.56560591  0.26579272    -0.77200
C396        C  0.40504891  0.50865146  0.25103255     0.86300
O397        O  0.42533701  0.51231208  0.27136165    -0.64300
Ni398      Ni  0.05125441  0.54027753  0.26997913     1.27400
Ni399      Ni  0.01943272  0.98031731  0.23978464     1.26100
H400        H  0.47501942  0.95802475  0.27188520     0.40800
O401        O  0.20940927  0.53783749  0.50137420    -0.72700
O402        O  0.30400423  0.52841689  0.49452843    -0.72700
O403        O  0.25731184  0.55077206  0.45409762    -0.72700
O404        O  0.25352804  0.50668805  0.04559820    -0.72800
O405        O  0.23929093  0.96180195  0.04110713    -0.72700
O406        O  0.24416498  0.98904749  0.45513326    -0.72700
O407        O  0.28824837  0.97035736  0.99543151    -0.72700
O408        O  0.19436561  0.98250930  0.99909813    -0.72700
Ni409      Ni  0.25715591  0.53521934  0.49783804     1.25400
Ni410      Ni  0.24077574  0.97437863  0.99734863     1.25400
C411        C  0.18588246  0.01199274  0.00069637     0.89500
C412        C  0.31335385  0.99538434  0.49518201     0.89400
C413        C  0.25004844  0.02177197  0.44254629     0.89500
C414        C  0.24538294  0.98485483  0.05579379     0.89600
O415        O  0.29250892  0.53546877  0.22858669    -0.72700
O416        O  0.19547949  0.51920810  0.24150394    -0.72700
O417        O  0.24643845  0.54551865  0.27044605    -0.72700
O418        O  0.24166583  0.50967317  0.20016704    -0.72800
O419        O  0.23725334  0.95792725  0.22562811    -0.72700
O420        O  0.24136746  0.98344691  0.30118714    -0.72700
O421        O  0.19224681  0.97656462  0.26261445    -0.72700
O422        O  0.28657214  0.96458675  0.26365926    -0.72700
Ni423      Ni  0.24388237  0.52938086  0.23418296     1.25400
Ni424      Ni  0.23890586  0.96860946  0.26426522     1.25400
C425        C  0.31005695  0.51145365  0.24138738     0.89500
C426        C  0.18115476  0.49000994  0.25871915     0.89400
C427        C  0.24886930  0.52454571  0.29664613     0.89500
C428        C  0.24284125  0.47718004  0.20323774     0.89600
C429        C  0.25021475  0.03306783  0.41003668    -0.16700
C430        C  0.25001393  0.03572389  0.38307369     0.07300
C431        C  0.24963715  0.03199320  0.35315762     0.09200
C432        C  0.25044458  0.53747090  0.32322291    -0.17600
C433        C  0.24303776  0.97464312  0.08842853    -0.16700
C434        C  0.24153257  0.96990030  0.11571384     0.07300
C435        C  0.24095559  0.96940829  0.14678082     0.09200
C436        C  0.24245244  0.46494311  0.17622959    -0.17600
C437        C  0.12298716  0.98960437  0.24625784    -0.14700
C438        C  0.14789562  0.01238148  0.25150930    -0.29800
H439        H  0.12899787  0.96725049  0.23857692     0.14400
H440        H  0.13357616  0.47432497  0.28834151     0.14900
C441        C  0.36825374  0.50791977  0.25749419    -0.14700
C442        C  0.34720464  0.51707404  0.23516682    -0.29800
H443        H  0.35807732  0.49882149  0.28118776     0.14400
H444        H  0.35742837  0.52887947  0.21174064     0.14900
C445        C  0.12565637  0.99610779  0.99437320    -0.14700
C446        C  0.14983893  0.01638597  0.00368975    -0.29800
H447        H  0.13250695  0.97732563  0.98236737     0.14400
H448        H  0.14412582  0.53520649  0.51527678     0.14900
C449        C  0.34989237  0.99272516  0.49201113    -0.14700
C450        C  0.37290201  0.51163278  0.50184847    -0.29800
H451        H  0.35587576  0.47637533  0.47667236     0.14400
H452        H  0.36434553  0.02885872  0.01569531     0.14900
C453        C  0.49770937  0.00027502  0.38776262    -0.11500
C454        C  0.99903803  0.50217848  0.35997379    -0.13100
C455        C  0.99724097  0.50083178  0.11063793    -0.11500
C456        C  0.49537374  0.99765414  0.13783351    -0.13100
C457        C  0.00163779  0.87590609  0.23192797    -0.14700
C458        C  0.97673747  0.84952069  0.23372945    -0.29800
H459        H  0.53374607  0.87460240  0.22868612     0.14400
H460        H  0.95042917  0.85409604  0.23517823     0.14900
C461        C  0.52025485  0.65116756  0.25903531    -0.14700
C462        C  0.49546853  0.62402948  0.26483283    -0.29800
H463        H  0.54629736  0.64693086  0.25493567     0.14400
H464        H  0.46929304  0.62855688  0.26769001     0.14900
C465        C  0.53117432  0.75421296  0.32901894    -0.16700
C466        C  0.53437452  0.75699783  0.35450832     0.06300
C467        C  0.53223067  0.75973161  0.38472990     0.09200
C468        C  0.52634556  0.76050126  0.41069199    -0.17600
C469        C  0.47185763  0.74803222  0.16588671    -0.16700
C470        C  0.46579639  0.74557320  0.14074294     0.07300
C471        C  0.46340595  0.74290767  0.11060190     0.09200
C472        C  0.46627875  0.74185721  0.08440534    -0.17600
C473        C  0.00712679  0.87919966  0.48723861    -0.14700
C474        C  0.98276921  0.85275358  0.48840834    -0.29800
H475        H  0.03348951  0.87462807  0.48821518     0.14400
H476        H  0.45585524  0.85818155  0.47594085     0.14900
C477        C  0.48734561  0.62088946  0.01463064    -0.14700
C478        C  0.51047437  0.64699131  0.01727683    -0.29800
H479        H  0.96367517  0.63142892  0.51401773     0.14400
H480        H  0.53623982  0.64192969  0.02190259     0.14900
O481        O  0.47850184  0.69681211  0.50227720    -0.72700
O482        O  0.45970812  0.78812111  0.98340657    -0.72700
O483        O  0.48069170  0.74359246  0.95230619    -0.72700
O484        O  0.45774543  0.73981938  0.53483286    -0.72800
O485        O  0.02353457  0.75449615  0.54185602    -0.72700
O486        O  0.04763711  0.76265210  0.96276239    -0.72700
O487        O  0.02432909  0.80642463  0.99348321    -0.72700
O488        O  0.03404251  0.71329806  0.50449641    -0.72700
Ni489      Ni  0.46938266  0.74440954  0.49251359     1.25400
Ni490      Ni  0.03232290  0.75829251  0.00397408     1.25400
C491        C  0.00855354  0.68995302  0.50694957     0.89500
C492        C  0.99577167  0.81547307  0.98441864     0.89400
C493        C  0.51206616  0.75181728  0.94325637     0.89500
C494        C  0.48035548  0.74578756  0.55267725     0.89600
O495        O  0.03811408  0.76220745  0.70146960    -0.72700
O496        O  0.06345616  0.75295030  0.78289621    -0.72700
O497        O  0.05152712  0.70866524  0.74748184    -0.72700
O498        O  0.04993746  0.80679716  0.73704955    -0.72800
O499        O  0.46718300  0.78902594  0.75133984    -0.72700
O500        O  0.48531708  0.69433345  0.76299544    -0.72700
O501        O  0.49059700  0.74115478  0.79691772    -0.72700
O502        O  0.46199214  0.74207739  0.71756612    -0.72700
Ni503      Ni  0.05268506  0.75803537  0.74159552     1.25400
Ni504      Ni  0.47441649  0.74101574  0.75793563     1.25400
C505        C  0.48402923  0.75143692  0.69482923     0.89500
C506        C  0.52161626  0.75070872  0.80012810     0.89400
C507        C  0.51477431  0.68832077  0.75493796     0.89500
C508        C  0.49061445  0.81432840  0.74003686     0.89600
O509        O  0.41720031  0.99669410  0.97590531    -0.79100
O510        O  0.06977555  0.99387983  0.97872562    -0.63800
O511        O  0.47814987  0.97705070  0.50197664    -1.10400
C512        C  0.49954618  0.59045163  0.51510581     1.07800
O513        O  0.08004559  0.50913815  0.51998706    -0.77000
O514        O  0.03475311  0.52553079  0.56177737    -0.64600
Ni515      Ni  0.44123087  0.95715831  0.97688325     1.34900
C516        C  0.00544193  0.51128928  0.57393925     0.86500
O517        O  0.02482062  0.93636477  0.98494886    -0.77600
O518        O  0.46272265  0.91591450  0.97826589    -0.87800
C519        C  0.09083616  0.99735985  0.50049883     0.86100
O520        O  0.45999900  0.97699110  0.93458584    -0.66000
O521        O  0.02906800  0.58578316  0.51809765    -0.85300
C522        C  0.48943880  0.99062034  0.92236423     0.86900
C523        C  0.00156091  0.91253929  0.98286484     1.08500
H524        H  0.02280299  0.54340964  0.97699132     0.40300
O525        O  0.02055297  0.52587845  0.99638077    -1.08000
O526        O  0.48331975  0.50467877  0.55526123    -0.64600
Ni527      Ni  0.47605970  0.52053810  0.50944937     1.26300
O528        O  0.01518124  0.99805503  0.94375492    -0.64900
O529        O  0.47543036  0.56704045  0.51382203    -0.77200
C530        C  0.40596817  0.49970009  0.99967979     0.86300
O531        O  0.42833578  0.51094401  0.51953988    -0.64300
Ni532      Ni  0.05318152  0.54656294  0.51946890     1.27400
Ni533      Ni  0.02249113  0.98258053  0.98948037     1.26100
H534        H  0.47644566  0.95984034  0.52154472     0.40800
O535        O  0.41989682  0.00039236  0.72239338    -0.79100
O536        O  0.06813334  0.98110084  0.73264128    -0.63800
O537        O  0.47685713  0.97769624  0.75062432    -1.10400
C538        C  0.50461177  0.58859588  0.76538353     1.07800
O539        O  0.08016321  0.49860964  0.77183071    -0.77000
O540        O  0.03669357  0.51885817  0.81311317    -0.64600
Ni541      Ni  0.44481249  0.96089329  0.72591409     1.34900
C542        C  0.00660003  0.50736309  0.82488854     0.86500
O543        O  0.01639738  0.92843291  0.73771867    -0.77600
O544        O  0.46695935  0.91950406  0.72970840    -0.87800
C545        C  0.08821347  0.98695391  0.75251125     0.86100
O546        O  0.46518443  0.97939911  0.68402661    -0.66000
O547        O  0.03547811  0.57989512  0.76917477    -0.85300
C548        C  0.49461824  0.99372885  0.67233094     0.86900
C549        C  0.99018082  0.90737909  0.73599331     1.08500
H550        H  0.02574748  0.54226542  0.72644783     0.40300
O551        O  0.02315050  0.52463224  0.74578586    -1.08000
O552        O  0.48281272  0.50166485  0.80556401    -0.64600
Ni553      Ni  0.47749865  0.51925976  0.75952488     1.26300
O554        O  0.01524425  0.99286709  0.69524037    -0.64900
O555        O  0.47952351  0.56592564  0.76459243    -0.77200
C556        C  0.40977486  0.50742789  0.74829945     0.86300
O557        O  0.42953543  0.51247803  0.76862376    -0.64300
Ni558      Ni  0.05631925  0.53840924  0.77092626     1.27400
Ni559      Ni  0.02017882  0.97606216  0.74139798     1.26100
H560        H  0.47444824  0.96078016  0.77037756     0.40800
O561        O  0.20659908  0.52523200  0.00536154    -0.72700
O562        O  0.30073950  0.51560807  0.99887691    -0.72700
O563        O  0.25373120  0.53400585  0.95820223    -0.72700
O564        O  0.25607775  0.51591072  0.54098765    -0.72800
O565        O  0.24410557  0.95524916  0.54175210    -0.72700
O566        O  0.24310143  0.99078138  0.95384972    -0.72700
O567        O  0.29195579  0.96925500  0.49433106    -0.72700
O568        O  0.19653442  0.97594189  0.50208280    -0.72700
Ni569      Ni  0.25411001  0.52237560  0.00198275     1.25400
Ni570      Ni  0.24380140  0.97038349  0.49820323     1.25400
C571        C  0.18706256  0.00442503  0.50549647     0.89500
C572        C  0.31063019  0.99591432  0.99549476     0.89400
C573        C  0.25072993  0.02307271  0.94004707     0.89500
C574        C  0.24973892  0.97720453  0.55757232     0.89600
O575        O  0.30404630  0.51979171  0.73779969    -0.72700
O576        O  0.20940945  0.52887098  0.73501301    -0.72700
O577        O  0.25675472  0.53561730  0.77452933    -0.72700
O578        O  0.25664975  0.51253914  0.69777792    -0.72800
O579        O  0.24102505  0.95556067  0.72576769    -0.72700
O580        O  0.24442163  0.98550496  0.79908492    -0.72700
O581        O  0.19499034  0.97399064  0.76201528    -0.72700
O582        O  0.29040927  0.96706940  0.76225241    -0.72700
Ni583      Ni  0.25715012  0.52619539  0.73531982     1.25400
Ni584      Ni  0.24232599  0.96856745  0.76332208     1.25400
C585        C  0.31333425  0.48995938  0.74999863     0.89500
C586        C  0.18742653  0.50233640  0.74665887     0.89400
C587        C  0.25028150  0.51093793  0.79908218     0.89500
C588        C  0.25041879  0.48056361  0.69738840     0.89600
C589        C  0.25223926  0.03303492  0.90739473    -0.16700
C590        C  0.25276791  0.03638265  0.88027865     0.07300
C591        C  0.25258685  0.03450004  0.84978726     0.09200
C592        C  0.25004603  0.51898981  0.82798061    -0.17600
C593        C  0.24845303  0.96529070  0.59007283    -0.16700
C594        C  0.24702041  0.96058457  0.61732305     0.07300
C595        C  0.24568421  0.96184068  0.64793402     0.09200
C596        C  0.25045682  0.47212586  0.66867733    -0.17600
C597        C  0.12409060  0.98167889  0.74934050    -0.14700
C598        C  0.14865815  0.00723570  0.75019223    -0.29800
H599        H  0.13039595  0.95743131  0.74530600     0.14400
H600        H  0.14540742  0.53252699  0.75051967     0.14900
C601        C  0.37368462  0.51159604  0.75166911    -0.14700
C602        C  0.34967778  0.48592200  0.74986582    -0.29800
H603        H  0.36676183  0.53554213  0.75588983     0.14400
H604        H  0.35697529  0.46101437  0.74829926     0.14900
C605        C  0.12649886  0.99122309  0.49720023    -0.14700
C606        C  0.15086731  0.00791209  0.50966015    -0.29800
H607        H  0.13313406  0.97472450  0.48278997     0.14400
H608        H  0.14200230  0.52334557  0.02038673     0.14900
C609        C  0.34660954  0.99107227  0.99306823    -0.14700
C610        C  0.36988222  0.50356800  0.00325464    -0.29800
H611        H  0.35315287  0.46196015  0.98473782     0.14400
H612        H  0.36541027  0.02810737  0.51775855     0.14900
C613        C  0.49458983  0.99853930  0.88706092    -0.11500
C614        C  0.00058633  0.50076162  0.86016018    -0.13100
C615        C  0.00004806  0.50323727  0.60931057    -0.11500
C616        C  0.50068955  0.00095318  0.63719230    -0.13100
C617        C  0.99283693  0.87009386  0.73815025    -0.14700
C618        C  0.02195854  0.85588542  0.73943382    -0.29800
H619        H  0.53299996  0.87489799  0.72933997     0.14400
H620        H  0.04596970  0.87239464  0.73726711     0.14900
C621        C  0.52199992  0.65197967  0.75838444    -0.14700
C622        C  0.49746237  0.62452466  0.76432787    -0.29800
H623        H  0.54815939  0.64798754  0.75448318     0.14400
H624        H  0.47116788  0.62878189  0.76688562     0.14900
C625        C  0.53111660  0.75118195  0.82995309    -0.16700
C626        C  0.53341089  0.75180016  0.85608466     0.06300
C627        C  0.52964696  0.75254368  0.88674141     0.09200
C628        C  0.52258796  0.75276439  0.91263626    -0.17600
C629        C  0.47412639  0.74958981  0.66538660    -0.16700
C630        C  0.46879735  0.74693999  0.64018732     0.07300
C631        C  0.46736881  0.74420105  0.61004812     0.09200
C632        C  0.47086315  0.74356279  0.58381287    -0.17600
C633        C  0.01141043  0.87784398  0.98305593    -0.14700
C634        C  0.98882625  0.85198358  0.97916124    -0.29800
H635        H  0.03712269  0.87294825  0.98810400     0.14400
H636        H  0.45131389  0.85344561  0.97513003     0.14900
C637        C  0.49093558  0.62572794  0.51405514    -0.14700
C638        C  0.51477181  0.65203480  0.51484054    -0.29800
H639        H  0.96733388  0.63003129  0.01189351     0.14400
H640        H  0.54078979  0.64706792  0.51823271     0.14900
O641        O  0.97478643  0.19460691  0.00421154    -0.72700
O642        O  0.97229888  0.29604204  0.48255133    -0.72700
O643        O  0.99004281  0.25121244  0.45112686    -0.72700
O644        O  0.95289855  0.23806131  0.03555053    -0.72800
O645        O  0.54228656  0.25468876  0.03994731    -0.72700
O646        O  0.51667938  0.26015323  0.45514768    -0.72700
O647        O  0.52407161  0.30868073  0.48713272    -0.72700
O648        O  0.54006852  0.20692547  0.00698332    -0.72700
Ni649      Ni  0.96692288  0.24258996  0.99382111     1.25400
Ni650      Ni  0.53478024  0.26181158  0.49307380     1.25400
C651        C  0.51559213  0.18224311  0.01648850     0.89500
C652        C  0.49487301  0.31476866  0.49582994     0.89400
C653        C  0.02090004  0.25966748  0.44054996     0.89500
C654        C  0.97433211  0.24333836  0.05457238     0.89600
O655        O  0.55452263  0.26024110  0.22018492    -0.72700
O656        O  0.52492947  0.25100207  0.30367723    -0.72700
O657        O  0.53937983  0.20634410  0.27040478    -0.72700
O658        O  0.54082082  0.30523394  0.25358709    -0.72800
O659        O  0.95465602  0.28703459  0.25154946    -0.72700
O660        O  0.97280617  0.19202256  0.26602148    -0.72700
O661        O  0.97933430  0.24118941  0.29772286    -0.72700
O662        O  0.94796285  0.23780189  0.21994151    -0.72700
Ni663      Ni  0.54182571  0.25589528  0.26242154     1.25400
Ni664      Ni  0.96176702  0.23884313  0.25959937     1.25400
C665        C  0.96936841  0.24637221  0.19670791     0.89500
C666        C  0.01056444  0.25136830  0.29963116     0.89400
C667        C  0.00211273  0.18597248  0.25756912     0.89500
C668        C  0.97825851  0.31187310  0.23936868     0.89600
O669        O  0.91979994  0.49627745  0.47629909    -0.79100
O670        O  0.57167450  0.49474342  0.47377082    -0.63800
O671        O  0.97594976  0.47374559  0.00334902    -1.10400
C672        C  0.99470573  0.08737577  0.01976883     1.07800
O673        O  0.57634359  0.99618452  0.02099786    -0.77000
O674        O  0.53411897  0.01771869  0.06218485    -0.64600
Ni675      Ni  0.94658083  0.45851965  0.47850917     1.34900
C676        C  0.50411308  0.00597299  0.07400578     0.86500
O677        O  0.52505142  0.43839776  0.47985515    -0.77600
O678        O  0.97133861  0.41948666  0.48055212    -0.87800
C679        C  0.58869507  0.49330578  0.99761464     0.86100
O680        O  0.96442959  0.47780299  0.43616854    -0.66000
O681        O  0.53319823  0.07828499  0.01852558    -0.85300
C682        C  0.99303479  0.49336790  0.42352247     0.86900
C683        C  0.50102936  0.41421276  0.48034303     1.08500
H684        H  0.52538156  0.04618212  0.47478619     0.40300
O685        O  0.52337536  0.02876612  0.49423817    -1.08000
O686        O  0.98033721  0.00147191  0.05992313    -0.64600
Ni687      Ni  0.97298544  0.01700691  0.01426142     1.26300
O688        O  0.51637211  0.50063929  0.43904233    -0.64900
O689        O  0.97103398  0.06344328  0.01861864    -0.77200
C690        C  0.90896516  0.00886530  0.50183048     0.86300
O691        O  0.92563473  0.00569295  0.02531744    -0.64300
Ni692      Ni  0.55360719  0.03663332  0.01996063     1.27400
Ni693      Ni  0.52421818  0.48471385  0.48460885     1.26100
H694        H  0.97407200  0.45644911  0.02288376     0.40800
O695        O  0.91586937  0.49911102  0.22806116    -0.79100
O696        O  0.56514874  0.48398528  0.22725301    -0.63800
O697        O  0.97248760  0.47275442  0.25377604    -1.10400
C698        C  0.99507757  0.08670104  0.26999522     1.07800
O699        O  0.57692712  0.00503204  0.26958414    -0.77000
O700        O  0.53388883  0.02384311  0.31142516    -0.64600
Ni701      Ni  0.93915346  0.45897083  0.22870222     1.34900
C702        C  0.50447195  0.01050554  0.32375002     0.86500
O703        O  0.51273996  0.43085054  0.23282532    -0.77600
O704        O  0.96013436  0.41753834  0.23023309    -0.87800
C705        C  0.58533664  0.48954427  0.24714860     0.86100
O706        O  0.95839008  0.47840035  0.18644718    -0.66000
O707        O  0.52896217  0.08397343  0.26804863    -0.85300
C708        C  0.98828313  0.49059272  0.17455156     0.86900
C709        C  0.48629736  0.41088707  0.22956656     1.08500
H710        H  0.52056822  0.04610765  0.22499085     0.40300
O711        O  0.51908831  0.02851415  0.24431894    -1.08000
O712        O  0.97971755  0.00039196  0.31075114    -0.64600
Ni713      Ni  0.97163480  0.01643292  0.26509108     1.26300
O714        O  0.51228143  0.49439496  0.19047614    -0.64900
O715        O  0.97095409  0.06270620  0.27015947    -0.77200
C716        C  0.90454749  0.00127798  0.25526107     0.86300
O717        O  0.92396447  0.00602099  0.27593242    -0.64300
Ni718      Ni  0.55190596  0.04388403  0.26904747     1.27400
Ni719      Ni  0.51713030  0.47829037  0.23661196     1.26100
H720        H  0.97030654  0.45503442  0.27306766     0.40800
O721        O  0.70936511  0.03842886  0.49595272    -0.72700
O722        O  0.80422326  0.02935402  0.49340147    -0.72700
O723        O  0.75878690  0.04687796  0.45079990    -0.72700
O724        O  0.74785845  0.99762737  0.05172290    -0.72800
O725        O  0.73921035  0.45243538  0.04555048    -0.72700
O726        O  0.74462253  0.49377500  0.44898906    -0.72700
O727        O  0.78884628  0.46239024  0.00010489    -0.72700
O728        O  0.69383779  0.47174890  0.00314324    -0.72700
Ni729      Ni  0.75726184  0.03613044  0.49439081     1.25400
Ni730      Ni  0.74087989  0.46482033  0.00181749     1.25400
C731        C  0.68465243  0.50111925  0.00439178     0.89500
C732        C  0.81318864  0.49893875  0.48969822     0.89400
C733        C  0.75109659  0.52646429  0.43610887     0.89500
C734        C  0.74473581  0.47549912  0.06028835     0.89600
O735        O  0.79484152  0.02609377  0.22789309    -0.72700
O736        O  0.69831011  0.01929193  0.23943065    -0.72700
O737        O  0.75119998  0.04276207  0.26778647    -0.72700
O738        O  0.74194865  0.00277122  0.20012875    -0.72800
O739        O  0.74331825  0.45042396  0.23083068    -0.72700
O740        O  0.74844425  0.48927977  0.29953489    -0.72700
O741        O  0.69728060  0.46266151  0.27180537    -0.72700
O742        O  0.79445980  0.47724249  0.25950274    -0.72700
Ni743      Ni  0.74663679  0.02466515  0.23269147     1.25400
Ni744      Ni  0.74594618  0.46794346  0.26648750     1.25400
C745        C  0.81016260  0.00089256  0.24215127     0.89500
C746        C  0.68189796  0.99169750  0.25738803     0.89400
C747        C  0.75193220  0.02234690  0.29456124     0.89500
C748        C  0.73980080  0.96966482  0.20485611     0.89600
C749        C  0.75156340  0.53802785  0.40357456    -0.16700
C750        C  0.75160319  0.54320662  0.37629649     0.07300
C751        C  0.75105974  0.54256417  0.34554159     0.09200
C752        C  0.75467863  0.03604033  0.32051871    -0.17600
C753        C  0.74294929  0.46476230  0.09301533    -0.16700
C754        C  0.74152533  0.45783785  0.12051390     0.07300
C755        C  0.74038755  0.45452787  0.15219987     0.09200
C756        C  0.73663749  0.95542629  0.17916993    -0.17600
C757        C  0.62211951  0.48913808  0.24147244    -0.14700
C758        C  0.64293628  0.48185438  0.26428700    -0.29800
H759        H  0.63253182  0.49594924  0.21786273     0.14400
H760        H  0.63360757  0.97803892  0.28570500     0.14900
C761        C  0.86752609  0.00014688  0.26039884    -0.14700
C762        C  0.84716687  0.00376449  0.23714107    -0.29800
H763        H  0.85673860  0.99611008  0.28363571     0.14400
H764        H  0.85794037  0.01042393  0.21366034     0.14900
C765        C  0.62445378  0.48726361  0.99513127    -0.14700
C766        C  0.64850633  0.50559067  0.00654892    -0.29800
H767        H  0.63133517  0.46898450  0.98259030     0.14400
H768        H  0.64398176  0.03587140  0.50882894     0.14900
C769        C  0.84927884  0.49470170  0.48748502    -0.14700
C770        C  0.87298755  0.01401545  0.50400118    -0.29800
H771        H  0.85727249  0.97550161  0.48165455     0.14400
H772        H  0.86334250  0.52668356  0.01630479     0.14900
C773        C  0.99777757  0.49978747  0.38849683    -0.11500
C774        C  0.49938824  0.00355988  0.35899345    -0.13100
C775        C  0.49797623  0.00013956  0.10914850    -0.11500
C776        C  0.99432288  0.49737180  0.13940510    -0.13100
C777        C  0.48839196  0.37390535  0.23053377    -0.14700
C778        C  0.51506430  0.35730028  0.24002287    -0.29800
H779        H  0.02325798  0.36958793  0.23045594     0.14400
H780        H  0.53760770  0.37175794  0.24552408     0.14900
C781        C  0.01000313  0.14995452  0.26199132    -0.14700
C782        C  0.98626571  0.12190723  0.26905182    -0.29800
H783        H  0.03627129  0.14672704  0.25747720     0.14400
H784        H  0.95976772  0.12515766  0.27223249     0.14900
C785        C  0.02162231  0.25429710  0.32840544    -0.16700
C786        C  0.02813275  0.25746017  0.35318884     0.06300
C787        C  0.03103616  0.26047499  0.38308005     0.09200
C788        C  0.02880548  0.26130463  0.40930100    -0.17600
C789        C  0.95880077  0.24365018  0.16769167    -0.16700
C790        C  0.95489567  0.24147382  0.14213935     0.07300
C791        C  0.95660436  0.24012266  0.11155231     0.09200
C792        C  0.96280738  0.24061335  0.08533835    -0.17600
C793        C  0.51008726  0.37899747  0.48196307    -0.14700
C794        C  0.48678432  0.35072659  0.49097891    -0.29800
H795        H  0.53648849  0.37601397  0.47777988     0.14400
H796        H  0.96433324  0.36048785  0.47247428     0.14900
C797        C  0.98574314  0.12266274  0.01816125    -0.14700
C798        C  0.00950152  0.14880930  0.01952129    -0.29800
H799        H  0.47204989  0.13183366  0.51878767     0.14400
H800        H  0.03519141  0.14348776  0.02421061     0.14900
O801        O  0.98477482  0.19960871  0.50361671    -0.72700
O802        O  0.96290960  0.29144073  0.98439122    -0.72700
O803        O  0.98466425  0.24812635  0.95291730    -0.72700
O804        O  0.96725573  0.24480398  0.53498654    -0.72800
O805        O  0.54938740  0.26225169  0.53253600    -0.72700
O806        O  0.52084572  0.25443138  0.95909114    -0.72700
O807        O  0.52207605  0.30212148  0.99210788    -0.72700
O808        O  0.54138815  0.21356621  0.50052944    -0.72700
Ni809      Ni  0.97668158  0.24741649  0.49281151     1.25400
Ni810      Ni  0.53324573  0.25520776  0.99899109     1.25400
C811        C  0.51764298  0.18882539  0.51255656     0.89500
C812        C  0.49188510  0.30825325  0.99778240     0.89400
C813        C  0.01626585  0.25634895  0.94500840     0.89500
C814        C  0.99087610  0.25093181  0.55181942     0.89600
O815        O  0.56507052  0.26279953  0.71532594    -0.72700
O816        O  0.53911138  0.25224746  0.79980329    -0.72700
O817        O  0.55051185  0.20805191  0.76525470    -0.72700
O818        O  0.55376446  0.30731344  0.74993731    -0.72800
O819        O  0.96551173  0.28610586  0.75199235    -0.72700
O820        O  0.98551058  0.19199232  0.76618395    -0.72700
O821        O  0.98826329  0.24001854  0.79920848    -0.72700
O822        O  0.96321025  0.23843714  0.71904018    -0.72700
Ni823      Ni  0.55408263  0.25775695  0.75794982     1.25400
Ni824      Ni  0.97373090  0.23840196  0.75982050     1.25400
C825        C  0.98609921  0.24810214  0.69694819     0.89500
C826        C  0.01891962  0.25056565  0.80294517     0.89400
C827        C  0.01531189  0.18616198  0.75896327     0.89500
C828        C  0.98890486  0.31148087  0.74100864     0.89600
O829        O  0.91802310  0.49619968  0.97721607    -0.79100
O830        O  0.56926716  0.48797153  0.97717531    -0.63800
O831        O  0.97870663  0.47643711  0.50234727    -1.10400
C832        C  0.00173210  0.09173941  0.51961348     1.07800
O833        O  0.58084814  0.00421028  0.51954328    -0.77000
O834        O  0.53806303  0.02378565  0.56109254    -0.64600
Ni835      Ni  0.94351203  0.45760301  0.97864847     1.34900
C836        C  0.50835212  0.01127232  0.57326769     0.86500
O837        O  0.52225772  0.43205575  0.98278891    -0.77600
O838        O  0.96629092  0.41724757  0.98074888    -0.87800
C839        C  0.59162547  0.50025515  0.49378097     0.86100
O840        O  0.96261925  0.47715449  0.93633239    -0.66000
O841        O  0.53531285  0.08442767  0.51762627    -0.85300
C842        C  0.99216418  0.49074139  0.92428057     0.86900
C843        C  0.49827018  0.40808591  0.98253951     1.08500
H844        H  0.52278247  0.04104132  0.97550610     0.40300
O845        O  0.52036731  0.02322210  0.99474169    -1.08000
O846        O  0.98160124  0.00603709  0.55956472    -0.64600
Ni847      Ni  0.97616180  0.02247066  0.51347655     1.26300
O848        O  0.51517755  0.49463939  0.94080306    -0.64900
O849        O  0.97694768  0.06934976  0.51754336    -0.77200
C850        C  0.90546379  0.99841042  0.00611825     0.86300
O851        O  0.92817282  0.01453855  0.52235207    -0.64300
Ni852      Ni  0.55678304  0.04355621  0.51879777     1.27400
Ni853      Ni  0.52157030  0.47877986  0.98676043     1.26100
H854        H  0.97790518  0.45930610  0.52187899     0.40800
O855        O  0.92041675  0.49783331  0.72627118    -0.79100
O856        O  0.57169950  0.48599214  0.72816888    -0.63800
O857        O  0.97723848  0.47374953  0.75268491    -1.10400
C858        C  0.00448155  0.08682660  0.76874670     1.07800
O859        O  0.57881119  0.00343363  0.77209892    -0.77000
O860        O  0.53366777  0.02192610  0.81211346    -0.64600
Ni861      Ni  0.94419715  0.45800027  0.72825534     1.34900
C862        C  0.50333139  0.01056951  0.82300642     0.86500
O863        O  0.52160915  0.43267644  0.73202240    -0.77600
O864        O  0.96553900  0.41644313  0.73077964    -0.87800
C865        C  0.59101770  0.49083841  0.74887307     0.86100
O866        O  0.96332725  0.47692739  0.68587449    -0.66000
O867        O  0.53279246  0.08362576  0.76909574    -0.85300
C868        C  0.99264711  0.49105709  0.67362038     0.86900
C869        C  0.49624525  0.41166652  0.72857732     1.08500
H870        H  0.52573583  0.04631273  0.72509736     0.40300
O871        O  0.52243478  0.02878107  0.74449307    -1.08000
O872        O  0.98133112  0.00126186  0.80990409    -0.64600
Ni873      Ni  0.97568742  0.01766682  0.76393988     1.26300
O874        O  0.51899559  0.49638817  0.68999661    -0.64900
O875        O  0.97897699  0.06460895  0.76815097    -0.77200
C876        C  0.90796809  0.00751956  0.75298425     0.86300
O877        O  0.92787341  0.01228541  0.77327577    -0.64300
Ni878      Ni  0.55434712  0.04269147  0.77071635     1.27400
Ni879      Ni  0.52367894  0.47971979  0.73634282     1.26100
H880        H  0.97525407  0.45649308  0.77224344     0.40800
O881        O  0.70438758  0.01884252  0.00880405    -0.72700
O882        O  0.79901085  0.01011054  0.00773079    -0.72700
O883        O  0.75536650  0.03098480  0.96439262    -0.72700
O884        O  0.75496158  0.02181385  0.53780451    -0.72800
O885        O  0.74364802  0.46159861  0.53622288    -0.72700
O886        O  0.74341023  0.48071560  0.95836098    -0.72700
O887        O  0.79133812  0.47319996  0.48904136    -0.72700
O888        O  0.69686581  0.48204164  0.49557360    -0.72700
Ni889      Ni  0.75205673  0.01634955  0.00829291     1.25400
Ni890      Ni  0.74367858  0.47564952  0.49237798     1.25400
C891        C  0.68768969  0.51087134  0.49822553     0.89500
C892        C  0.81047914  0.48874178  0.99982341     0.89400
C893        C  0.75043580  0.51296828  0.94431879     0.89500
C894        C  0.74980111  0.48413676  0.55148357     0.89600
O895        O  0.80310192  0.02512422  0.74148061    -0.72700
O896        O  0.70873703  0.03627827  0.74057258    -0.72700
O897        O  0.75655361  0.03710438  0.78089267    -0.72700
O898        O  0.75539592  0.02433695  0.70038079    -0.72800
O899        O  0.74271641  0.45995204  0.71982642    -0.72700
O900        O  0.74576973  0.47897287  0.79812411    -0.72700
O901        O  0.69677332  0.47430500  0.75879202    -0.72700
O902        O  0.79159422  0.46470927  0.75848773    -0.72700
Ni903      Ni  0.75640940  0.03276602  0.74006267     1.25400
Ni904      Ni  0.74376122  0.46744812  0.75967849     1.25400
C905        C  0.81178688  0.99448128  0.75104880     0.89500
C906        C  0.68654588  0.00940474  0.75000452     0.89400
C907        C  0.75020725  0.01045636  0.80384256     0.89500
C908        C  0.74841885  0.99355112  0.69711484     0.89600
C909        C  0.75261713  0.52223889  0.91160668    -0.16700
C910        C  0.75369725  0.52448001  0.88461295     0.07300
C911        C  0.75396129  0.52208697  0.85418566     0.09200
C912        C  0.75136412  0.01545140  0.83380072    -0.17600
C913        C  0.74892810  0.47346545  0.58409938    -0.16700
C914        C  0.74845971  0.47064801  0.61114471     0.07300
C915        C  0.74822071  0.47314764  0.64150238     0.09200
C916        C  0.74791986  0.98862259  0.66708159    -0.17600
C917        C  0.62668716  0.48470835  0.74665438    -0.14700
C918        C  0.65147023  0.50929179  0.74906089    -0.29800
H919        H  0.63272185  0.46078535  0.74175407     0.14400
H920        H  0.64363288  0.03845954  0.75434211     0.14900
C921        C  0.87210191  0.01253722  0.75625186    -0.14700
C922        C  0.84782987  0.98959081  0.75026341    -0.29800
H923        H  0.86548002  0.03443852  0.76431196     0.14400
H924        H  0.85460216  0.96601904  0.74511363     0.14900
C925        C  0.62766627  0.49611714  0.48985933    -0.14700
C926        C  0.65148716  0.51442278  0.50155655    -0.29800
H927        H  0.63489016  0.47909913  0.47615171     0.14400
H928        H  0.63947912  0.01595459  0.02105212     0.14900
C929        C  0.84690038  0.48557688  0.99690936    -0.14700
C930        C  0.86903966  0.00042225  0.01115401    -0.29800
H931        H  0.85332919  0.95843262  0.99283651     0.14400
H932        H  0.86478503  0.52755625  0.51541395     0.14900
C933        C  0.99802075  0.49753969  0.88898199    -0.11500
C934        C  0.49678593  0.00276111  0.85817731    -0.13100
C935        C  0.50297200  0.00439883  0.60843487    -0.11500
C936        C  0.99794342  0.49892814  0.63825134    -0.13100
C937        C  0.50022678  0.37535124  0.72870197    -0.14700
C938        C  0.52751220  0.35954703  0.73781487    -0.29800
H939        H  0.03103416  0.37162144  0.72914050     0.14400
H940        H  0.54972451  0.37429830  0.74353964     0.14900
C941        C  0.02264186  0.14988967  0.76259196    -0.14700
C942        C  0.99786573  0.12276497  0.76788816    -0.29800
H943        H  0.04882095  0.14572049  0.75910424     0.14400
H944        H  0.97161531  0.12731762  0.77010776     0.14900
C945        C  0.02759777  0.25340923  0.83244354    -0.16700
C946        C  0.03200157  0.25649650  0.85766238     0.06300
C947        C  0.03219901  0.25906013  0.88789193     0.09200
C948        C  0.02742249  0.25914137  0.91414388    -0.17600
C949        C  0.97782414  0.24726098  0.66688907    -0.16700
C950        C  0.97540537  0.24719893  0.64064114     0.07300
C951        C  0.97753963  0.24788325  0.60958209     0.09200
C952        C  0.98254458  0.24899973  0.58308162    -0.17600
C953        C  0.50723410  0.37256568  0.98496158    -0.14700
C954        C  0.48366721  0.34436365  0.99234992    -0.29800
H955        H  0.53382938  0.36930423  0.98262315     0.14400
H956        H  0.95581501  0.35653069  0.97615254     0.14900
C957        C  0.99477398  0.12785863  0.51753870    -0.14700
C958        C  0.01977369  0.15384022  0.51664620    -0.29800
H959        H  0.47033114  0.12648127  0.01862897     0.14400
H960        H  0.04564066  0.14808986  0.51951630     0.14900
O961        O  0.98355790  0.69602972  0.00145321    -0.72700
O962        O  0.96428587  0.79332495  0.49385254    -0.72700
O963        O  0.97519354  0.75247689  0.45644377    -0.72700
O964        O  0.96078930  0.73975841  0.03207450    -0.72800
O965        O  0.50691809  0.75145542  0.04405908    -0.72700
O966        O  0.53863464  0.76497890  0.45950765    -0.72700
O967        O  0.51773989  0.80778891  0.49221437    -0.72700
O968        O  0.52755412  0.70687120  0.01309177    -0.72700
Ni969      Ni  0.97596836  0.74403617  0.99065020     1.25400
Ni970      Ni  0.52694666  0.76026657  0.50174656     1.25400
C971        C  0.50335862  0.68351096  0.01170273     0.89500
C972        C  0.48837412  0.81615956  0.48523339     0.89400
C973        C  0.00434926  0.76242765  0.44212795     0.89500
C974        C  0.98179782  0.74489980  0.05148134     0.89600
O975        O  0.51353489  0.75975841  0.19783169    -0.72700
O976        O  0.54333543  0.76045984  0.27682525    -0.72700
O977        O  0.53707251  0.71246969  0.24389033    -0.72700
O978        O  0.51994196  0.80781440  0.23101168    -0.72800
O979        O  0.95886557  0.78852207  0.24684264    -0.72700
O980        O  0.97638816  0.69300689  0.26312382    -0.72700
O981        O  0.97761845  0.74178376  0.29530401    -0.72700
O982        O  0.95680893  0.73995954  0.21478136    -0.72700
Ni983      Ni  0.53037714  0.76076496  0.23661114     1.25400
Ni984      Ni  0.96548286  0.74011416  0.25560523     1.25400
C985        C  0.98053109  0.74860209  0.19352991     0.89500
C986        C  0.00776774  0.75229343  0.30023807     0.89400
C987        C  0.00650362  0.68660727  0.25751177     0.89500
C988        C  0.98332609  0.81318049  0.23703573     0.89600
O989        O  0.92051060  0.99988017  0.47868641    -0.79100
O990        O  0.57138128  0.99147326  0.47544625    -0.63800
O991        O  0.97678949  0.97246455  0.00584597    -1.10400
C992        C  0.00014618  0.58808467  0.01768932     1.07800
O993        O  0.57758846  0.50245014  0.02089473    -0.77000
O994        O  0.53235952  0.52087973  0.06145433    -0.64600
Ni995      Ni  0.94511311  0.96043912  0.48182705     1.34900
C996        C  0.50290568  0.50708181  0.07350620     0.86500
O997        O  0.52243097  0.93696001  0.48169444    -0.77600
O998        O  0.96766223  0.91971469  0.48541980    -0.87800
C999        C  0.58752106  0.98870282  0.99691406     0.86100
O1000       O  0.96389885  0.97808717  0.43938934    -0.66000
O1001       O  0.52744124  0.58057781  0.01714083    -0.85300
C1002       C  0.99290675  0.99268406  0.42681747     0.86900
C1003       C  0.49765989  0.91399178  0.48098835     1.08500
H1004       H  0.52287993  0.54668400  0.47373553     0.40300
O1005       O  0.52170975  0.52928451  0.49315096    -1.08000
O1006       O  0.97997313  0.50240769  0.05753989    -0.64600
Ni1007     Ni  0.97454117  0.51876901  0.01149986     1.26300
O1008       O  0.51683592  0.99995159  0.44015625    -0.64900
O1009       O  0.97538017  0.56556433  0.01580992    -0.77200
C1010       C  0.90831203  0.50539757  0.49938591     0.86300
O1011       O  0.92674423  0.51052221  0.02089815    -0.64300
Ni1012     Ni  0.55118281  0.54063957  0.01917833     1.27400
Ni1013     Ni  0.52378666  0.98369837  0.48594221     1.26100
H1014       H  0.97596539  0.95512941  0.02526261     0.40800
O1015       O  0.91688577  0.99695535  0.23023701    -0.79100
O1016       O  0.56893620  0.99464605  0.22443843    -0.63800
O1017       O  0.97378306  0.97212684  0.25580289    -1.10400
C1018       C  0.99820641  0.58718023  0.26774211     1.07800
O1019       O  0.57426873  0.49704573  0.27121983    -0.77000
O1020       O  0.53337211  0.52166446  0.31084429    -0.64600
Ni1021     Ni  0.94110252  0.95773216  0.23046246     1.34900
C1022       C  0.50398136  0.50835597  0.32330842     0.86500
O1023       O  0.52242930  0.93732073  0.23089582    -0.77600
O1024       O  0.96330500  0.91726881  0.23133240    -0.87800
C1025       C  0.58862652  0.99967244  0.24476536     0.86100
O1026       O  0.95989505  0.97799879  0.18820898    -0.66000
O1027       O  0.53277751  0.58128857  0.26515677    -0.85300
C1028       C  0.98953822  0.99120806  0.17629627     0.86900
C1029       C  0.49839936  0.91331097  0.23063753     1.08500
H1030       H  0.52065045  0.54110383  0.22473343     0.40300
O1031       O  0.51852254  0.52393609  0.24436781    -1.08000
O1032       O  0.97953607  0.50089258  0.30819388    -0.64600
Ni1033     Ni  0.97198439  0.51743213  0.26266542     1.26300
O1034       O  0.51382654  0.99958435  0.18996750    -0.64900
O1035       O  0.97335190  0.56391692  0.26777844    -0.77200
C1036       C  0.90421138  0.50420112  0.25303298     0.86300
O1037       O  0.92417020  0.50873824  0.27341063    -0.64300
Ni1038     Ni  0.55251426  0.53859269  0.26846692     1.27400
Ni1039     Ni  0.52151069  0.98392680  0.23559942     1.26100
H1040       H  0.97206255  0.95424213  0.27496933     0.40800
O1041       O  0.70950410  0.53678845  0.49860226    -0.72700
O1042       O  0.80412544  0.52794447  0.49204636    -0.72700
O1043       O  0.75730156  0.54874950  0.45153071    -0.72700
O1044       O  0.75169074  0.50795872  0.04653019    -0.72800
O1045       O  0.73603212  0.94291351  0.04824889    -0.72700
O1046       O  0.74649333  0.99079838  0.45145464    -0.72700
O1047       O  0.78766286  0.95548039  0.00408478    -0.72700
O1048       O  0.69248178  0.96447808  0.00459619    -0.72700
Ni1049     Ni  0.75728474  0.53452518  0.49517543     1.25400
Ni1050     Ni  0.73964533  0.95773443  0.00449339     1.25400
C1051       C  0.68292575  0.99334468  0.00689046     0.89500
C1052       C  0.81356201  0.99975411  0.49322470     0.89400
C1053       C  0.75326662  0.02302330  0.43692741     0.89500
C1054       C  0.74054172  0.96491564  0.06417206     0.89600
O1055       O  0.79199362  0.52989258  0.22806510    -0.72700
O1056       O  0.69483917  0.51545900  0.24060896    -0.72700
O1057       O  0.74616724  0.54240108  0.26871100    -0.72700
O1058       O  0.74069088  0.50364051  0.20035099    -0.72800
O1059       O  0.74075756  0.94941909  0.23165093    -0.72700
O1060       O  0.74987849  0.98930092  0.29916904    -0.72700
O1061       O  0.69709095  0.96627416  0.27146182    -0.72700
O1062       O  0.79382164  0.97314112  0.25998765    -0.72700
Ni1063     Ni  0.74332558  0.52473922  0.23337678     1.25400
Ni1064     Ni  0.74534495  0.96758625  0.26664841     1.25400
C1065       C  0.80917480  0.50596396  0.24178722     0.89500
C1066       C  0.68013210  0.48673664  0.25833927     0.89400
C1067       C  0.74819225  0.52210949  0.29528079     0.89500
C1068       C  0.74129087  0.47095139  0.20429076     0.89600
C1069       C  0.75474169  0.03262428  0.40430848    -0.16700
C1070       C  0.75562816  0.03860296  0.37693639     0.07300
C1071       C  0.75574457  0.04061962  0.34559681     0.09200
C1072       C  0.75001396  0.53601845  0.32119795    -0.17600
C1073       C  0.73728548  0.95304531  0.09678131    -0.16700
C1074       C  0.73555996  0.94790220  0.12411786     0.07300
C1075       C  0.73528400  0.94872591  0.15488553     0.09200
C1076       C  0.74024315  0.45798991  0.17775755    -0.17600
C1077       C  0.62531722  0.99971783  0.23941483    -0.14700
C1078       C  0.64496548  0.98937370  0.26257494    -0.29800
H1079       H  0.63639518  0.00811823  0.21598352     0.14400
H1080       H  0.63250874  0.47228208  0.28787561     0.14900
C1081       C  0.86721618  0.50322381  0.25891577    -0.14700
C1082       C  0.84643092  0.51114115  0.23611955    -0.29800
H1083       H  0.85671736  0.49518309  0.28252924     0.14400
H1084       H  0.85699430  0.52194619  0.21267354     0.14900
C1085       C  0.62323934  0.98237663  0.99422485    -0.14700
C1086       C  0.64675135  0.99774691  0.00857441    -0.29800
H1087       H  0.63053692  0.96648675  0.97948852     0.14400
H1088       H  0.64433185  0.53356582  0.51303398     0.14900
C1089       C  0.84973451  0.99554861  0.49186160    -0.14700
C1090       C  0.87248390  0.51107382  0.50137475    -0.29800
H1091       H  0.85664652  0.47598447  0.47560843     0.14400
H1092       H  0.86144270  0.01909839  0.02296060     0.14900
C1093       C  0.99791087  0.99902081  0.39154534    -0.11500
C1094       C  0.49888680  0.50207138  0.35842411    -0.13100
C1095       C  0.49701195  0.50057794  0.10863767    -0.11500
C1096       C  0.99558426  0.99827263  0.14112926    -0.13100
C1097       C  0.50719727  0.87805636  0.23099844    -0.14700
C1098       C  0.48321256  0.85021357  0.23596886    -0.29800
H1099       H  0.02792303  0.87103344  0.23172544     0.14400
H1100       H  0.45682699  0.85363029  0.23954846     0.14900
C1101       C  0.01422002  0.65033038  0.26208157    -0.14700
C1102       C  0.99014306  0.62266673  0.26716751    -0.29800
H1103       H  0.04063583  0.64665599  0.25915973     0.14400
H1104       H  0.96364980  0.62648314  0.26907440     0.14900
C1105       C  0.01373599  0.75703177  0.32953740    -0.16700
C1106       C  0.01429660  0.76191425  0.35441410     0.06300
C1107       C  0.01127105  0.76587677  0.38400456     0.09200
C1108       C  0.00768500  0.76609780  0.41021950    -0.17600
C1109       C  0.97270539  0.74694646  0.16364557    -0.16700
C1110       C  0.96758042  0.74475210  0.13836145     0.07300
C1111       C  0.96592151  0.74260469  0.10820242     0.09200
C1112       C  0.97003354  0.74239903  0.08199204    -0.17600
C1113       C  0.50547369  0.87842748  0.48212938    -0.14700
C1114       C  0.48160604  0.85269641  0.48009581    -0.29800
H1115       H  0.53128118  0.87295629  0.48601047     0.14400
H1116       H  0.95643040  0.85741387  0.48760675     0.14900
C1117       C  0.99297620  0.62406436  0.01591049    -0.14700
C1118       C  0.01754914  0.64969233  0.01695301    -0.29800
H1119       H  0.46486054  0.63060336  0.51087926     0.14400
H1120       H  0.04311940  0.64368826  0.02128272     0.14900
O1121       O  0.97831292  0.69793816  0.50558659    -0.72700
O1122       O  0.97193810  0.79289524  0.98089514    -0.72700
O1123       O  0.99510995  0.74904868  0.95026342    -0.72700
O1124       O  0.96768251  0.73935167  0.54278664    -0.72800
O1125       O  0.51156614  0.75446392  0.54332958    -0.72700
O1126       O  0.53434498  0.75866820  0.96101228    -0.72700
O1127       O  0.51335890  0.80324921  0.99179101    -0.72700
O1128       O  0.53222397  0.71170978  0.51066416    -0.72700
Ni1129     Ni  0.96936224  0.74518675  0.49967997     1.25400
Ni1130     Ni  0.52242610  0.75559769  0.00282119     1.25400
C1131       C  0.50789312  0.68852453  0.50926099     0.89500
C1132       C  0.48401049  0.81148849  0.98452984     0.89400
C1133       C  0.02699808  0.75647426  0.94348228     0.89500
C1134       C  0.99435785  0.74554873  0.55617496     0.89600
O1135       O  0.51502790  0.76144157  0.69784883    -0.72700
O1136       O  0.54372809  0.76044285  0.77742869    -0.72700
O1137       O  0.53836791  0.71350139  0.74355612    -0.72700
O1138       O  0.52020711  0.80853124  0.73197692    -0.72800
O1139       O  0.99522059  0.79643802  0.75313860    -0.72700
O1140       O  0.99691863  0.69777470  0.76405898    -0.72700
O1141       O  0.00873471  0.74257389  0.79946351    -0.72700
O1142       O  0.98340394  0.75140474  0.71810720    -0.72700
Ni1143     Ni  0.53125082  0.76169476  0.73693752     1.25400
Ni1144     Ni  0.99409146  0.74672306  0.75934676     1.25400
C1145       C  0.00678546  0.75757801  0.69666302     0.89500
C1146       C  0.04009835  0.74653363  0.80437930     0.89400
C1147       C  0.02468481  0.68712891  0.75727740     0.89500
C1148       C  0.02226990  0.81784289  0.74334553     0.89600
O1149       O  0.91632077  0.99104376  0.98187343    -0.79100
O1150       O  0.56805795  0.98560361  0.97583968    -0.63800
O1151       O  0.97774289  0.97734717  0.50574516    -1.10400
C1152       C  0.99807615  0.59113885  0.51605323     1.07800
O1153       O  0.58075608  0.50794341  0.51784436    -0.77000
O1154       O  0.53670508  0.52524394  0.55980878    -0.64600
Ni1155     Ni  0.94472556  0.95494951  0.98147853     1.34900
C1156       C  0.50753664  0.51113302  0.57238100     0.86500
O1157       O  0.51844085  0.93235079  0.98012979    -0.77600
O1158       O  0.97020603  0.91671113  0.98161617    -0.87800
C1159       C  0.59158688  0.99699828  0.49525021     0.86100
O1160       O  0.96211700  0.97673747  0.93897959    -0.66000
O1161       O  0.53068641  0.58535776  0.51626005    -0.85300
C1162       C  0.99131500  0.99107488  0.92654286     0.86900
C1163       C  0.49357363  0.90973436  0.97893725     1.08500
H1164       H  0.52069341  0.54093732  0.97503453     0.40300
O1165       O  0.51906812  0.52377100  0.99460700    -1.08000
O1166       O  0.98159122  0.50513802  0.55638965    -0.64600
Ni1167     Ni  0.97519942  0.52112035  0.51042983     1.26300
O1168       O  0.51360921  0.99625293  0.93979553    -0.64900
O1169       O  0.97395573  0.56772852  0.51465273    -0.77200
C1170       C  0.90691989  0.50412506  0.00108768     0.86300
O1171       O  0.92744200  0.51103483  0.51994698    -0.64300
Ni1172     Ni  0.55445940  0.54579753  0.51732488     1.27400
Ni1173     Ni  0.52024765  0.97861490  0.98554679     1.26100
H1174       H  0.97619423  0.96031326  0.52540316     0.40800
O1175       O  0.91876636  0.99947638  0.72910999    -0.79100
O1176       O  0.57110942  0.99107030  0.72751619    -0.63800
O1177       O  0.97425115  0.97218282  0.75607927    -1.10400
C1178       C  0.00527281  0.58789459  0.76693680     1.07800
O1179       O  0.57994601  0.49993679  0.77216241    -0.77000
O1180       O  0.53595170  0.52121991  0.81186647    -0.64600
Ni1181     Ni  0.94096064  0.95870433  0.73081364     1.34900
C1182       C  0.50629341  0.50751909  0.82356908     0.86500
O1183       O  0.52236230  0.93718562  0.73148276    -0.77600
O1184       O  0.96038265  0.91626234  0.73329694    -0.87800
C1185       C  0.59031014  0.99564012  0.74834453     0.86100
O1186       O  0.96102001  0.97776033  0.68877109    -0.66000
O1187       O  0.53530568  0.58196772  0.76664121    -0.85300
C1188       C  0.99114401  0.98930603  0.67717856     0.86900
C1189       C  0.49796196  0.91384847  0.73075878     1.08500
H1190       H  0.52609155  0.54233996  0.72506413     0.40300
O1191       O  0.52357282  0.52497535  0.74459099    -1.08000
O1192       O  0.98253868  0.50277998  0.80701560    -0.64600
Ni1193     Ni  0.97718902  0.51913136  0.76084078     1.26300
O1194       O  0.51790483  0.00063985  0.69013721    -0.64900
O1195       O  0.97959672  0.56630127  0.76511133    -0.77200
C1196       C  0.90941829  0.50639682  0.74983271     0.86300
O1197       O  0.92920129  0.51247443  0.76983790    -0.64300
Ni1198     Ni  0.55619684  0.54003468  0.76974683     1.27400
Ni1199     Ni  0.52316046  0.98380993  0.73616922     1.26100
H1200       H  0.97113079  0.95492978  0.77561358     0.40800
O1201       O  0.70647383  0.52708309  0.00449870    -0.72700
O1202       O  0.80096615  0.51786292  0.00120296    -0.72700
O1203       O  0.75571710  0.53645213  0.95876210    -0.72700
O1204       O  0.75640206  0.51669624  0.53839346    -0.72800
O1205       O  0.74287008  0.96552553  0.53909474    -0.72700
O1206       O  0.74398765  0.97606835  0.96129566    -0.72700
O1207       O  0.79192737  0.97344346  0.49365621    -0.72700
O1208       O  0.69735261  0.98241348  0.49647709    -0.72700
Ni1209     Ni  0.75412639  0.52434975  0.00276368     1.25400
Ni1210     Ni  0.74423187  0.97599049  0.49521298     1.25400
C1211       C  0.68781494  0.01181926  0.49690246     0.89500
C1212       C  0.80895475  0.98152935  0.00528828     0.89400
C1213       C  0.75094305  0.00869244  0.94868212     0.89500
C1214       C  0.74830157  0.98980815  0.55263683     0.89600
O1215       O  0.80407557  0.52185308  0.73679516    -0.72700
O1216       O  0.70942938  0.53132764  0.73669245    -0.72700
O1217       O  0.75809547  0.53598774  0.77562729    -0.72700
O1218       O  0.75545969  0.51690923  0.69725909    -0.72800
O1219       O  0.74180127  0.96689535  0.72005424    -0.72700
O1220       O  0.74314401  0.97964637  0.80063237    -0.72700
O1221       O  0.69527184  0.97879185  0.75965517    -0.72700
O1222       O  0.78959065  0.96761235  0.76038392    -0.72700
Ni1223     Ni  0.75718282  0.52854394  0.73570843     1.25400
Ni1224     Ni  0.74196227  0.97117648  0.76095258     1.25400
C1225       C  0.81333651  0.49168895  0.74761155     0.89500
C1226       C  0.68759382  0.50452765  0.74787756     0.89400
C1227       C  0.75242064  0.51050370  0.79965934     0.89500
C1228       C  0.74879992  0.48534568  0.69578425     0.89600
C1229       C  0.75353002  0.01972447  0.91611650    -0.16700
C1230       C  0.75392755  0.02244670  0.88913504     0.07300
C1231       C  0.75278158  0.01983895  0.85893666     0.09200
C1232       C  0.75348477  0.51744439  0.82902754    -0.17600
C1233       C  0.74693262  0.98176985  0.58520155    -0.16700
C1234       C  0.74675460  0.98076770  0.61189091     0.07300
C1235       C  0.74729555  0.98418627  0.64190762     0.09200
C1236       C  0.74830837  0.47817514  0.66651250    -0.17600
C1237       C  0.62618726  0.99042364  0.74588489    -0.14700
C1238       C  0.65044685  0.01422652  0.75060632    -0.29800
H1239       H  0.63282981  0.96762956  0.73927692     0.14400
H1240       H  0.64505449  0.53437526  0.75104075     0.14900
C1241       C  0.87332692  0.51066465  0.75297659    -0.14700
C1242       C  0.84953333  0.48751939  0.74659240    -0.29800
H1243       H  0.86611793  0.53213463  0.76137086     0.14400
H1244       H  0.85679018  0.46428953  0.74112808     0.14900
C1245       C  0.62775104  0.99382108  0.49073454    -0.14700
C1246       C  0.65147021  0.01508394  0.49958387    -0.29800
H1247       H  0.63504005  0.97487946  0.47909866     0.14400
H1248       H  0.64164993  0.52591824  0.01671782     0.14900
C1249       C  0.84550265  0.97878043  0.00248896    -0.14700
C1250       C  0.87067152  0.50733971  0.00515698    -0.29800
H1251       H  0.85438784  0.46449981  0.98807504     0.14400
H1252       H  0.86530565  0.03192776  0.51660330     0.14900
C1253       C  0.99678473  0.99798503  0.89130002    -0.11500
C1254       C  0.50007799  0.49963237  0.85893233    -0.13100
C1255       C  0.50275738  0.50370973  0.60770764    -0.11500
C1256       C  0.99712398  0.99743619  0.64184771    -0.13100
C1257       C  0.50644325  0.87837358  0.73155379    -0.14700
C1258       C  0.48264259  0.85041585  0.73672019    -0.29800
H1259       H  0.96916880  0.85328447  0.73925533     0.14400
H1260       H  0.45621678  0.85372573  0.74023553     0.14900
C1261       C  0.02696717  0.64970166  0.76058129    -0.14700
C1262       C  0.00025290  0.62450790  0.76572775    -0.29800
H1263       H  0.05227170  0.64291075  0.75740981     0.14400
H1264       H  0.97467952  0.63110036  0.76761744     0.14900
C1265       C  0.04888816  0.74550036  0.83453619    -0.16700
C1266       C  0.05149097  0.74787316  0.86009151     0.06300
C1267       C  0.04789152  0.75275615  0.88934801     0.09200
C1268       C  0.03994808  0.75611613  0.91401256    -0.17600
C1269       C  0.99794940  0.75724253  0.66681473    -0.16700
C1270       C  0.99310529  0.75349454  0.64198408     0.07300
C1271       C  0.99084524  0.74767179  0.61309109     0.09200
C1272       C  0.99141814  0.74449332  0.58761381    -0.17600
C1273       C  0.50128352  0.87420675  0.97959747    -0.14700
C1274       C  0.47723622  0.84816438  0.97859081    -0.29800
H1275       H  0.52723626  0.86887743  0.98280104     0.14400
H1276       H  0.96327622  0.85717672  0.97372750     0.14900
C1277       C  0.99002687  0.62678003  0.51426436    -0.14700
C1278       C  0.01483920  0.65350896  0.51114021    -0.29800
H1279       H  0.46151817  0.62586397  0.01017754     0.14400
H1280       H  0.04116129  0.64876869  0.51096718     0.14900
loop_ 
_geom_bond_atom_site_label_1 
_geom_bond_atom_site_label_2 
_geom_bond_distance 
_geom_bond_site_symmetry_2 
_ccdc_geom_bond_type 
O1           Ni9   1.912       .  S
O1          C651   1.280       .  A
O2         Ni169   1.911       .  S
O2          C652   1.279       .  A
O3         Ni169   1.913       .  S
O3           C13   1.278       .  A
O4           Ni9   1.923       .  S
O4           C14   1.282       .  A
O5         Ni170   1.910       .  S
O5          C654   1.279   1_455  A
O6          Ni10   1.910       .  S
O6          C653   1.277       .  A
O7          Ni10   1.922       .  S
O7           C12   1.283   1_455  A
O8         Ni170   1.914       .  S
O8           C11   1.280       .  A
Ni9         O162   1.914       .  S
Ni9         O163   1.919   1_554  S
Ni9        Ni810   2.393   1_554  S
Ni10        O165   1.909       .  S
Ni10        O168   1.923       .  S
Ni10       Ni809   2.394   1_455  S
C11         O641   1.282   1_455  A
C11         C798   1.472       .  S
C12         O642   1.279       .  A
C12         C154   1.470       .  S
C13         O646   1.278       .  A
C13         C148   1.423       .  S
C14         O645   1.275       .  A
C14         C152   1.427       .  S
O15         Ni23   1.908       .  S
O15         C665   1.279   1_455  A
O16         Ni23   1.905       .  S
O16         C666   1.276       .  A
O17         Ni23   1.914       .  S
O17         C667   1.280       .  A
O18         Ni23   1.915       .  S
O18         C668   1.281   1_455  A
O19         Ni24   1.932       .  S
O19          C28   1.286       .  A
O20         Ni24   1.936       .  S
O20          C27   1.284       .  A
O21         Ni24   1.904       .  S
O21          C26   1.276       .  A
O22         Ni24   1.898       .  S
O22          C25   1.276       .  A
Ni23       Ni664   2.394   1_455  S
Ni24       Ni663   2.393       .  S
C25         O655   1.280       .  A
C25         C149   1.424       .  S
C26         O656   1.280       .  A
C26         C145   1.425       .  S
C27         O657   1.280       .  A
C27         C141   1.479       .  S
C28         O658   1.279       .  A
C28         C778   1.483       .  S
O29         Ni35   1.933       .  S
O29         C370   1.281       .  A
O30         Ni53   1.904       .  S
O30         C199   1.274       .  A
O31          H54   0.967       .  S
O31        Ni195   1.909   1_554  S
O31        Ni853   1.896   1_554  S
O31        Ni367   1.934       .  S
C32          O49   1.282       .  A
C32         O681   1.280       .  A
C32         C157   1.477       .  S
O33         Ni52   1.932       .  S
O33         C359   1.280   1_544  A
O34         Ni52   1.961       .  S
O34          C36   1.278       .  A
Ni35         O38   1.924       .  S
Ni35         O40   1.957       .  S
Ni35        O191   1.905       .  S
C36         O686   1.304   1_455  A
C36         C135   1.550   1_455  S
O37         Ni53   1.919       .  S
O37          C43   1.277       .  A
O38         C683   1.281       .  A
C39         O190   1.274       .  A
C39         O353   1.281   1_556  A
C39         C125   1.473       .  S
O40          C42   1.276       .  A
O41         Ni52   1.918       .  S
O41         C672   1.279   1_455  A
C42         O688   1.306       .  A
C42         C133   1.548       .  S
C43         O678   1.281   1_455  A
C43         C153   1.475       .  S
H44          O45   0.966       .  S
O45        Ni373   1.932   1_545  S
O45        Ni847   1.898   1_455  S
O45        Ni212   1.910       .  S
O46         Ni47   2.050       .  S
O46         C676   1.307       .  A
Ni47         O51   1.909       .  S
Ni47         O49   1.929       .  S
Ni47        O351   1.942   1_545  S
Ni47        O845   1.894   1_554  S
O48         Ni53   2.047       .  S
O48         C682   1.306   1_455  A
C50         O349   1.279       .  A
C50         O211   1.278       .  A
C50         C130   1.477       .  S
O51         C210   1.276   1_554  A
Ni52        O205   1.911   1_554  S
Ni53        O831   1.897   1_455  S
Ni53        O365   1.927       .  S
O55         Ni61   1.936       .  S
O55         C396   1.279       .  A
O56         Ni79   1.917       .  S
O56          C65   1.277       .  A
O57          H80   0.965       .  S
O57         Ni61   1.910       .  S
O57        Ni719   1.896       .  S
O57        Ni393   1.935       .  S
C58          O75   1.284       .  A
C58         O707   1.282       .  A
C58         C142   1.489       .  S
O59         Ni78   1.934       .  S
O59         C385   1.281   1_545  A
O60         Ni78   1.960       .  S
O60          C62   1.278       .  A
Ni61         O64   1.924       .  S
Ni61         O66   1.956       .  S
C62         O712   1.308   1_455  A
C62         C134   1.554   1_455  S
O63         Ni79   1.932       .  S
O63          C69   1.284   1_455  A
O64         C709   1.280       .  A
C65         O379   1.280       .  A
C65         C117   1.481       .  S
O66          C68   1.276       .  A
O67         Ni78   1.924       .  S
O67         C698   1.280   1_455  A
C68         O714   1.305       .  A
C68         C136   1.550       .  S
C69         O704   1.282       .  A
C69         C137   1.479       .  S
H70          O71   0.966       .  S
O71         Ni78   1.906       .  S
O71        Ni399   1.940   1_545  S
O71        Ni713   1.902   1_455  S
O72         Ni73   2.053       .  S
O72         C702   1.307       .  A
Ni73         O77   1.912       .  S
Ni73         O75   1.940       .  S
Ni73        O377   1.944   1_545  S
Ni73        O711   1.894       .  S
O74         Ni79   2.042       .  S
O74         C708   1.304   1_455  A
C76          O77   1.277       .  A
C76         O375   1.282   1_545  A
C76         C121   1.476       .  S
Ni79        O697   1.896   1_455  S
Ni79        O391   1.937       .  S
O81         Ni89   1.913       .  S
O81         C571   1.279       .  A
O82         Ni89   1.916       .  S
O82         C412   1.280   1_545  A
O83         Ni89   1.919       .  S
O83         C413   1.280       .  A
O84        Ni249   1.908   1_554  S
O84         C414   1.278   1_545  A
O85         Ni90   1.918       .  S
O85          C94   1.279       .  A
O86        Ni250   1.907       .  S
O86          C93   1.278       .  A
O87         Ni90   1.921   1_556  S
O87         C252   1.281       .  A
O88         Ni90   1.922       .  S
O88          C91   1.282       .  A
Ni89        O244   1.907       .  S
Ni89       Ni570   2.394   1_545  S
Ni90        O246   1.907   1_554  S
Ni90       Ni569   2.394       .  S
C91         O561   1.279       .  A
C91         C126   1.470       .  S
C92         O402   1.282       .  A
C92         O247   1.281       .  A
C92         C129   1.474       .  S
C93         O403   1.279       .  A
C93         C109   1.429       .  S
C94         O404   1.279       .  A
C94         C113   1.432       .  S
O95        Ni103   1.922       .  S
O95         C105   1.282   1_545  A
O96        Ni103   1.920       .  S
O96         C106   1.281       .  A
O97        Ni103   1.903       .  S
O97         C107   1.276       .  A
O98        Ni103   1.912       .  S
O98         C108   1.279   1_545  A
O99        Ni104   1.923       .  S
O99         C428   1.281       .  A
O100       Ni104   1.910       .  S
O100        C427   1.279       .  A
O101       Ni104   1.927       .  S
O101        C426   1.282       .  A
O102       Ni104   1.924       .  S
O102        C425   1.282       .  A
Ni103      Ni424   2.394   1_545  S
Ni104      Ni423   2.393       .  S
C105        O422   1.282       .  A
C105        C122   1.476       .  S
C106        O421   1.282   1_545  A
C106        C438   1.472       .  S
C107        O420   1.281   1_545  A
C107        C112   1.426       .  S
C108        O419   1.277       .  A
C108        C116   1.426       .  S
C109        C110   1.202       .  T
C110        C111   1.406       .  S
C111        C432   1.202       .  T
C112        C431   1.200       .  T
C113        C114   1.204       .  T
C114        C115   1.409       .  S
C115        C436   1.204       .  T
C116        C435   1.200       .  T
C117        C118   1.345       .  D
C117        H119   1.087       .  S
C118        C426   1.478       .  S
C118        H440   1.086       .  S
H120        C438   1.087       .  S
C121        C122   1.344   1_545  D
C121        H123   1.086       .  S
C122        H124   1.087       .  S
C125        C126   1.341   1_556  D
C125        H127   1.087       .  S
C126        H608   1.087       .  S
H128        C606   1.087       .  S
C129        C450   1.345       .  D
C129        H451   1.087       .  S
C130        C449   1.348   1_545  D
C130        H612   1.087       .  S
H131        C449   1.087       .  S
H132        C610   1.087       .  S
C133       C1094   1.273       .  T
C134       C1093   1.277   1_545  T
C135       C1096   1.274   1_545  T
C136       C1095   1.275       .  T
C137        C138   1.349       .  D
C137        H779   1.087   1_655  S
C138        C668   1.476       .  S
C138        H140   1.087       .  S
H139        C777   1.087       .  S
C141        C142   1.349       .  D
C141        H143   1.087       .  S
C142        H144   1.086       .  S
C145        C146   1.199       .  T
C146        C147   1.401       .  S
C147        C148   1.199       .  T
C149        C150   1.200       .  T
C150        C151   1.404       .  S
C151        C152   1.201       .  T
C153        C154   1.342   1_455  D
C153        H155   1.087       .  S
C154        H796   1.087       .  S
H156        C794   1.087       .  S
C157        C158   1.348       .  D
C157        H959   1.087       .  S
C158        C651   1.474       .  S
C158        H160   1.086       .  S
H159        C957   1.087       .  S
O161       Ni169   1.913       .  S
O161        C811   1.280       .  A
O162        C812   1.280   1_554  A
O163        C173   1.280       .  A
O164       Ni169   1.918       .  S
O164        C174   1.281       .  A
O165        C814   1.278   1_455  A
O166       Ni170   1.912   1_556  S
O166        C813   1.278       .  A
O167       Ni170   1.915   1_556  S
O167        C172   1.281   1_455  A
O168        C171   1.283       .  A
Ni169      Ni650   2.394       .  S
Ni170      Ni649   2.395   1_454  S
C171        O801   1.281   1_455  A
C171        C958   1.477       .  S
C172        O802   1.281       .  A
C172        C314   1.471       .  S
C173        O806   1.276       .  A
C173        C308   1.426       .  S
C174        O805   1.276       .  A
C174        C312   1.428       .  S
O175       Ni183   1.904       .  S
O175        C825   1.277   1_455  A
O176       Ni183   1.905       .  S
O176        C826   1.276       .  A
O177       Ni183   1.926       .  S
O177        C827   1.283       .  A
O178       Ni183   1.925       .  S
O178        C828   1.284   1_455  A
O179       Ni184   1.922       .  S
O179        C188   1.284       .  A
O180       Ni184   1.927       .  S
O180        C187   1.282       .  A
O181       Ni184   1.908       .  S
O181        C186   1.277       .  A
O182       Ni184   1.905       .  S
O182        C185   1.277       .  A
Ni183      Ni824   2.393   1_455  S
Ni184      Ni823   2.392       .  S
C185        O815   1.279       .  A
C185        C309   1.427       .  S
C186        O816   1.280       .  A
C186        C305   1.428       .  S
C187        O817   1.282       .  A
C187        C301   1.478       .  S
C188        O818   1.280       .  A
C188        C938   1.483       .  S
O189       Ni195   1.932       .  S
O189        C530   1.281       .  A
O190       Ni213   1.903       .  S
O191        H214   0.966       .  S
O191       Ni693   1.897       .  S
O191       Ni527   1.931       .  S
C192        O209   1.283       .  A
C192        O841   1.279       .  A
C192        C317   1.479       .  S
O193       Ni212   1.937       .  S
O193        C519   1.282   1_545  A
O194       Ni212   1.962       .  S
O194        C196   1.278       .  A
Ni195       O198   1.927       .  S
Ni195       O200   1.966       .  S
C196        O846   1.306   1_455  A
C196        C295   1.553   1_455  S
O197       Ni213   1.920       .  S
O197        C203   1.277   1_455  A
O198        C843   1.281       .  A
C199        O513   1.280       .  A
C199        C285   1.472       .  S
O200        C202   1.279       .  A
O201       Ni212   1.927       .  S
O201        C832   1.281       .  A
C202        O848   1.306       .  A
C202        C293   1.556       .  S
C203        O838   1.279       .  A
C203        C313   1.475   1_655  S
H204        O205   0.967       .  S
O205       Ni533   1.932   1_545  S
O205       Ni687   1.898   1_456  S
O206       Ni207   2.046       .  S
O206        C836   1.306       .  A
Ni207       O211   1.917       .  S
Ni207       O209   1.933       .  S
Ni207       O511   1.940   1_545  S
Ni207       O685   1.898       .  S
O208       Ni213   2.053       .  S
O208        C842   1.308   1_455  A
C210        O509   1.280   1_545  A
C210        C290   1.473   1_556  S
Ni213       O671   1.897   1_456  S
Ni213       O525   1.933       .  S
O215       Ni221   1.927       .  S
O215        C556   1.278       .  A
O216       Ni239   1.909       .  S
O216        C225   1.276       .  A
O217        H240   0.965       .  S
O217       Ni221   1.910       .  S
O217       Ni879   1.899       .  S
O217       Ni553   1.939       .  S
C218        O235   1.283       .  A
C218        O867   1.279       .  A
C218        C302   1.488       .  S
O219       Ni238   1.932   1_565  S
O219        C545   1.280       .  A
O220       Ni238   1.964       .  S
O220        C222   1.279       .  A
Ni221       O224   1.920       .  S
Ni221       O226   1.952       .  S
C222        O872   1.306   1_455  A
C222        C294   1.552   1_455  S
O223       Ni239   1.923       .  S
O223        C229   1.278   1_455  A
O224        C869   1.277       .  A
C225        O539   1.281       .  A
C225        C277   1.476       .  S
O226        C228   1.275       .  A
O227       Ni238   1.930       .  S
O227        C858   1.280       .  A
C228        O874   1.309       .  A
C228        C296   1.551       .  S
C229        O864   1.280       .  A
C229        C297   1.480   1_655  S
H230        O231   0.967       .  S
O231       Ni559   1.944   1_545  S
O231       Ni873   1.899   1_455  S
O231       Ni238   1.910       .  S
O232       Ni233   2.053       .  S
O232        C862   1.308       .  A
Ni233       O237   1.916       .  S
Ni233       O235   1.941       .  S
Ni233       O537   1.943   1_545  S
Ni233       O871   1.898       .  S
O234       Ni239   2.050       .  S
O234        C868   1.307   1_455  A
C236        O535   1.280       .  A
C236        O237   1.278       .  A
C236        C281   1.476       .  S
Ni239       O857   1.899   1_455  S
Ni239       O551   1.933       .  S
O241       Ni249   1.918   1_554  S
O241        C411   1.281       .  A
O242       Ni249   1.918       .  S
O242        C572   1.281   1_545  A
O243       Ni249   1.918       .  S
O243        C573   1.279       .  A
O244        C574   1.278   1_545  A
O245       Ni250   1.916       .  S
O245        C254   1.279       .  A
O246        C253   1.278       .  A
O247       Ni250   1.917       .  S
O248       Ni250   1.917       .  S
O248        C251   1.281       .  A
Ni249      Ni410   2.394   1_545  S
Ni250      Ni409   2.394       .  S
C251        O401   1.281       .  A
C251        C286   1.472       .  S
C252        O562   1.280       .  A
C252        C289   1.472       .  S
C253        O563   1.280       .  A
C253        C269   1.428       .  S
C254        O564   1.278       .  A
C254        C273   1.426       .  S
O255       Ni263   1.924       .  S
O255        C265   1.282   1_545  A
O256       Ni263   1.922       .  S
O256        C266   1.282       .  A
O257       Ni263   1.909       .  S
O257        C267   1.277       .  A
O258       Ni263   1.914       .  S
O258        C268   1.280   1_545  A
O259       Ni264   1.906       .  S
O259        C588   1.276       .  A
O260       Ni264   1.913       .  S
O260        C587   1.279       .  A
O261       Ni264   1.928       .  S
O261        C586   1.283       .  A
O262       Ni264   1.925       .  S
O262        C585   1.283       .  A
Ni263      Ni584   2.394   1_545  S
Ni264      Ni583   2.394       .  S
C265        O582   1.282       .  A
C265        C282   1.478       .  S
C266        O581   1.282   1_545  A
C266        C598   1.476       .  S
C267        O580   1.280   1_545  A
C267        C272   1.427       .  S
C268        O579   1.276       .  A
C268        C276   1.425       .  S
C269        C270   1.202       .  T
C270        C271   1.405       .  S
C271        C592   1.201       .  T
C272        C591   1.201       .  T
C273        C274   1.200       .  T
C274        C275   1.403       .  S
C275        C596   1.200       .  T
C276        C595   1.199       .  T
C277        C278   1.343       .  D
C277        H279   1.086       .  S
C278        C586   1.475       .  S
C278        H600   1.087       .  S
H280        C598   1.087       .  S
C281        C282   1.345   1_545  D
C281        H283   1.086       .  S
C282        H284   1.087       .  S
C285        C286   1.343       .  D
C285        H287   1.087       .  S
C286        H448   1.087       .  S
H288        C446   1.087       .  S
C289        C610   1.343   1_556  D
C289        H611   1.087       .  S
C290        C609   1.344   1_544  D
C290        H452   1.087       .  S
H291        C609   1.087       .  S
H292        C450   1.087       .  S
C293       C1254   1.278       .  T
C294       C1253   1.276   1_545  T
C295       C1256   1.276   1_545  T
C296       C1255   1.276       .  T
C297        C298   1.345   1_455  D
C297        H939   1.087       .  S
C298        C828   1.478       .  S
C298        H300   1.087       .  S
H299        C937   1.087       .  S
C301        C302   1.351       .  D
C301        H303   1.087       .  S
C302        H304   1.086       .  S
C305        C306   1.201       .  T
C306        C307   1.405       .  S
C307        C308   1.201       .  T
C309        C310   1.201       .  T
C310        C311   1.405       .  S
C311        C312   1.201       .  T
C313        C314   1.344   1_455  D
C313        H315   1.087       .  S
C314        H956   1.087       .  S
H316        C954   1.087       .  S
C317        C318   1.349       .  D
C317        H799   1.087       .  S
C318        C811   1.473       .  S
C318        H320   1.086       .  S
H319        C797   1.087       .  S
O321       Ni329   1.922   1_554  S
O321        C971   1.282       .  A
O322       Ni489   1.919       .  S
O322        C972   1.281       .  A
O323       Ni489   1.912       .  S
O323        C333   1.279       .  A
O324       Ni329   1.916   1_554  S
O324        C334   1.279       .  A
O325       Ni490   1.899       .  S
O325        C974   1.277   1_455  A
O326       Ni330   1.899       .  S
O326        C973   1.275       .  A
O327       Ni330   1.918       .  S
O327        C332   1.282   1_455  A
O328       Ni490   1.924       .  S
O328        C331   1.283       .  A
Ni329       O482   1.921       .  S
Ni329       O483   1.914       .  S
Ni329     Ni1130   2.393   1_556  S
Ni330       O485   1.899       .  S
Ni330       O488   1.918       .  S
Ni330     Ni1129   2.396   1_455  S
C331        O961   1.281   1_455  A
C331       C1118   1.478       .  S
C332        O962   1.279       .  A
C332        C474   1.469       .  S
C333        O966   1.277       .  A
C333        C468   1.426       .  S
C334        O965   1.277       .  A
C334        C472   1.427       .  S
O335       Ni343   1.912       .  S
O335        C985   1.280   1_455  A
O336       Ni343   1.906       .  S
O336        C986   1.277       .  A
O337       Ni343   1.918       .  S
O337        C987   1.281       .  A
O338       Ni343   1.917       .  S
O338        C988   1.281   1_455  A
O339       Ni344   1.921       .  S
O339        C348   1.282       .  A
O340       Ni344   1.923       .  S
O340        C347   1.282       .  A
O341       Ni344   1.908       .  S
O341        C346   1.278       .  A
O342       Ni344   1.908       .  S
O342        C345   1.277       .  A
Ni343      Ni984   2.395   1_455  S
Ni344      Ni983   2.393       .  S
C345        O975   1.280       .  A
C345        C469   1.427       .  S
C346        O976   1.278       .  A
C346        C465   1.425       .  S
C347        O977   1.282       .  A
C347        C461   1.481       .  S
C348        O978   1.283       .  A
C348       C1098   1.480       .  S
O349       Ni355   1.926   1_545  S
O350       Ni373   1.905       .  S
O350        C519   1.275       .  A
O351        H374   0.966       .  S
O351       Ni515   1.911   1_554  S
O351      Ni1173   1.898   1_554  S
C352        O369   1.279       .  A
C352       O1001   1.281       .  A
C352        C477   1.482       .  S
O353       Ni372   1.934       .  S
O354       Ni372   1.959       .  S
O354        C356   1.277       .  A
Ni355       O358   1.926       .  S
Ni355       O360   1.956       .  S
Ni355       O511   1.909       .  S
C356       O1006   1.305   1_455  A
C356        C455   1.550   1_455  S
O357       Ni373   1.920       .  S
O357        C363   1.277   1_455  A
O358       C1003   1.281       .  A
C359        O510   1.273       .  A
C359        C445   1.470       .  S
O360        C362   1.276       .  A
O361       Ni372   1.925       .  S
O361        C992   1.281       .  A
C362       O1008   1.306       .  A
C362        C453   1.550   1_565  S
C363        O998   1.280       .  A
C363        C473   1.475   1_655  S
H364        O365   0.967       .  S
O365      Ni1167   1.895   1_455  S
O365       Ni532   1.906       .  S
O366       Ni367   2.048       .  S
O366        C996   1.306       .  A
Ni367       O371   1.904       .  S
Ni367       O369   1.926       .  S
Ni367      O1165   1.896   1_554  S
O368       Ni373   2.055   1_545  S
O368       C1002   1.309   1_445  A
C370        O531   1.277       .  A
C370        C450   1.477       .  S
O371        C530   1.275   1_554  A
Ni372       O525   1.910   1_554  S
Ni373      O1151   1.895   1_455  S
O375       Ni381   1.935       .  S
O376       Ni399   1.909       .  S
O376        C385   1.276       .  A
O377        H400   0.966       .  S
O377       Ni381   1.909       .  S
O377      Ni1039   1.902       .  S
C378        O395   1.281       .  A
C378       O1027   1.283       .  A
C378        C462   1.483       .  S
O379       Ni398   1.941       .  S
O380       Ni398   1.950       .  S
O380        C382   1.275       .  A
Ni381       O384   1.926       .  S
Ni381       O386   1.966       .  S
C382       O1032   1.306   1_455  A
C382        C454   1.542   1_455  S
O383       Ni399   1.934       .  S
O383        C389   1.284   1_455  A
O384       C1029   1.280       .  A
C385        C437   1.474       .  S
O386        C388   1.279       .  A
O387       Ni398   1.934       .  S
O387       C1018   1.284   1_455  A
C388       O1034   1.306       .  A
C388        C456   1.555       .  S
C389       O1024   1.281       .  A
C389        C457   1.482   1_655  S
H390        O391   0.966       .  S
O391      Ni1033   1.900   1_455  S
O391       Ni398   1.907       .  S
O392       Ni393   2.045       .  S
O392       C1022   1.305       .  A
Ni393       O397   1.914       .  S
Ni393       O395   1.930       .  S
Ni393      O1031   1.900       .  S
O394       Ni399   2.044       .  S
O394       C1028   1.304   1_455  A
C396        O397   1.276       .  A
C396        C441   1.479       .  S
Ni399      O1017   1.893   1_455  S
O401       Ni409   1.920       .  S
O402       Ni409   1.922       .  S
O403       Ni409   1.918       .  S
O404       Ni569   1.912       .  S
O405       Ni410   1.913   1_554  S
O405        C414   1.278       .  A
O406       Ni570   1.900       .  S
O406        C413   1.276   1_565  A
O407       Ni410   1.917       .  S
O407        C572   1.281       .  A
O408       Ni410   1.915       .  S
O408        C411   1.281   1_566  A
Ni409       O564   1.905       .  S
Ni410       O566   1.905       .  S
C411        C446   1.471       .  S
C412        O567   1.283       .  A
C412        C449   1.476       .  S
C413        C429   1.425       .  S
C414        C433   1.426       .  S
O415       Ni423   1.924       .  S
O415        C425   1.281       .  A
O416       Ni423   1.924       .  S
O416        C426   1.282       .  A
O417       Ni423   1.918       .  S
O417        C427   1.279       .  A
O418       Ni423   1.906       .  S
O418        C428   1.277       .  A
O419       Ni424   1.909       .  S
O420       Ni424   1.918       .  S
O421       Ni424   1.922       .  S
O422       Ni424   1.924       .  S
C425        C442   1.477       .  S
C427        C432   1.430       .  S
C428        C436   1.432       .  S
C429        C430   1.200       .  T
C430        C431   1.403       .  S
C433        C434   1.200       .  T
C434        C435   1.403       .  S
C437        C438   1.342   1_565  D
C437        H439   1.087       .  S
C441        C442   1.344       .  D
C441        H443   1.087       .  S
C442        H444   1.086       .  S
C445        C446   1.342   1_566  D
C445        H447   1.087       .  S
C453        C774   1.275       .  T
C454        C773   1.270       .  T
C455        C776   1.275       .  T
C456        C775   1.278   1_565  T
C457        C458   1.350   1_455  D
C457       H1099   1.087       .  S
C458        C988   1.477       .  S
C458        H460   1.086       .  S
H459       C1097   1.087       .  S
C461        C462   1.348       .  D
C461        H463   1.086       .  S
C462        H464   1.087       .  S
C465        C466   1.200       .  T
C466        C467   1.402       .  S
C467        C468   1.200       .  T
C469        C470   1.201       .  T
C470        C471   1.404       .  S
C471        C472   1.201       .  T
C473        C474   1.343   1_455  D
C473        H475   1.087       .  S
C474       H1116   1.087       .  S
H476       C1114   1.087       .  S
C477        C478   1.347       .  D
C477       H1279   1.087       .  S
C478        C971   1.478       .  S
C478        H480   1.087       .  S
H479       C1277   1.087       .  S
O481       Ni489   1.919       .  S
O481       C1131   1.282       .  A
O482       C1132   1.281       .  A
O483        C493   1.280       .  A
O484       Ni489   1.913       .  S
O484        C494   1.278       .  A
O485       C1134   1.276   1_455  A
O486       Ni490   1.900   1_556  S
O486       C1133   1.275       .  A
O487       Ni490   1.926   1_556  S
O487        C492   1.283   1_455  A
O488        C491   1.282       .  A
Ni489      Ni970   2.394       .  S
Ni490      Ni969   2.395   1_454  S
C491       O1121   1.280   1_455  A
C491       C1278   1.472       .  S
C492       O1122   1.280       .  A
C492        C634   1.477       .  S
C493       O1126   1.276       .  A
C493        C628   1.424       .  S
C494       O1125   1.278       .  A
C494        C632   1.424       .  S
O495       Ni503   1.903       .  S
O495       C1145   1.277       .  A
O496       Ni503   1.902       .  S
O496       C1146   1.275       .  A
O497       Ni503   1.918       .  S
O497       C1147   1.282       .  A
O498       Ni503   1.924       .  S
O498       C1148   1.281       .  A
O499       Ni504   1.922       .  S
O499        C508   1.282       .  A
O500       Ni504   1.922       .  S
O500        C507   1.282       .  A
O501       Ni504   1.906       .  S
O501        C506   1.278       .  A
O502       Ni504   1.906       .  S
O502        C505   1.276       .  A
Ni503     Ni1144   2.394   1_455  S
Ni504     Ni1143   2.393       .  S
C505       O1135   1.279       .  A
C505        C629   1.425       .  S
C506       O1136   1.277       .  A
C506        C625   1.423       .  S
C507       O1137   1.283       .  A
C507        C621   1.483       .  S
C508       O1138   1.284       .  A
C508       C1258   1.484       .  S
O509       Ni515   1.930       .  S
O510       Ni533   1.902       .  S
O511        H534   0.967       .  S
O511      Ni1013   1.896       .  S
C512        O529   1.279       .  A
C512       O1161   1.281       .  A
C512        C637   1.478       .  S
O513       Ni532   1.931       .  S
O514       Ni532   1.960       .  S
O514        C516   1.277       .  A
Ni515       O518   1.930       .  S
Ni515       O520   1.958       .  S
C516       O1166   1.306   1_455  A
C516        C615   1.553       .  S
O517       Ni533   1.924       .  S
O517        C523   1.278       .  A
O518       C1163   1.281       .  A
C519        C605   1.477       .  S
O520        C522   1.277       .  A
O521       Ni532   1.918       .  S
O521       C1152   1.280   1_455  A
C522       O1168   1.307       .  A
C522        C613   1.550       .  S
C523       O1158   1.280   1_455  A
C523        C633   1.482       .  S
H524        O525   0.966       .  S
O525      Ni1007   1.896   1_456  S
O526       Ni527   2.051       .  S
O526       C1156   1.307       .  A
Ni527       O531   1.911       .  S
Ni527       O529   1.924       .  S
Ni527      O1005   1.896       .  S
O528       Ni533   2.047       .  S
O528       C1162   1.305   1_455  A
C530        C610   1.470   1_556  S
Ni533       O991   1.899   1_456  S
O535       Ni541   1.934   1_545  S
O536       Ni559   1.914       .  S
O536        C545   1.277       .  A
O537        H560   0.967       .  S
O537       Ni541   1.911       .  S
O537      Ni1199   1.901       .  S
C538        O555   1.281       .  A
C538       O1187   1.280       .  A
C538        C622   1.485       .  S
O539       Ni558   1.935       .  S
O540       Ni558   1.963       .  S
O540        C542   1.278       .  A
Ni541       O544   1.934       .  S
Ni541       O546   1.957       .  S
C542       O1192   1.307   1_455  A
C542        C614   1.556       .  S
O543       Ni559   1.945       .  S
O543        C549   1.285   1_455  A
O544       C1189   1.281       .  A
C545        C597   1.475       .  S
O546        C548   1.276       .  A
O547       Ni558   1.922       .  S
O547       C1178   1.281       .  A
C548       O1194   1.307   1_565  A
C548        C616   1.548   1_565  S
C549       O1184   1.278       .  A
C549        C617   1.485       .  S
H550        O551   0.966       .  S
O551      Ni1193   1.898   1_455  S
O551       Ni558   1.906       .  S
O552       Ni553   2.051       .  S
O552       C1182   1.307       .  A
Ni553       O557   1.913       .  S
Ni553       O555   1.933       .  S
Ni553      O1191   1.900       .  S
O554       Ni559   2.050       .  S
O554       C1188   1.306   1_455  A
C556        O557   1.276       .  A
C556        C601   1.473       .  S
Ni559      O1177   1.898   1_455  S
O561       Ni569   1.912       .  S
O562       Ni569   1.912   1_556  S
O563       Ni569   1.919   1_556  S
O565       Ni570   1.910       .  S
O565        C574   1.277       .  A
O566        C573   1.278   1_565  A
O567       Ni570   1.927       .  S
O568       Ni570   1.927       .  S
O568        C571   1.283   1_565  A
C571        C606   1.474       .  S
C572        C609   1.472       .  S
C573        C589   1.427       .  S
C574        C593   1.423       .  S
O575       Ni583   1.918       .  S
O575        C585   1.281       .  A
O576       Ni583   1.918       .  S
O576        C586   1.280       .  A
O577       Ni583   1.910       .  S
O577        C587   1.278       .  A
O578       Ni583   1.918       .  S
O578        C588   1.281       .  A
O579       Ni584   1.906       .  S
O580       Ni584   1.914       .  S
O581       Ni584   1.924       .  S
O582       Ni584   1.923       .  S
C585        C602   1.475       .  S
C587        C592   1.428       .  S
C588        C596   1.427       .  S
C589        C590   1.201       .  T
C590        C591   1.404       .  S
C593        C594   1.199       .  T
C594        C595   1.401       .  S
C597        C598   1.344   1_565  D
C597        H599   1.086       .  S
C601        C602   1.345       .  D
C601        H603   1.086       .  S
C602        H604   1.087       .  S
C605        C606   1.343   1_565  D
C605        H607   1.087       .  S
C613        C934   1.274   1_565  T
C614        C933   1.278   1_455  T
C615        C936   1.276   1_455  T
C616        C935   1.274       .  T
C617        C618   1.345   1_655  D
C617       H1259   1.087       .  S
C618       C1148   1.487       .  S
C618        H620   1.086       .  S
H619       C1257   1.087       .  S
C621        C622   1.350       .  D
C621        H623   1.086       .  S
C622        H624   1.087       .  S
C625        C626   1.198       .  T
C626        C627   1.400       .  S
C627        C628   1.199       .  T
C629        C630   1.199       .  T
C630        C631   1.402       .  S
C631        C632   1.199       .  T
C633        C634   1.346   1_455  D
C633        H635   1.087       .  S
C634       H1276   1.087       .  S
H636       C1274   1.087       .  S
C637        C638   1.346       .  D
C637       H1119   1.087       .  S
C638       C1131   1.474       .  S
C638        H640   1.087       .  S
H639       C1117   1.087       .  S
O641       Ni649   1.919   1_554  S
O642       Ni809   1.909       .  S
O643       Ni809   1.906       .  S
O643        C653   1.278   1_655  A
O644       Ni649   1.908   1_554  S
O644        C654   1.277       .  A
O645       Ni810   1.901   1_554  S
O646       Ni650   1.905       .  S
O647       Ni650   1.923       .  S
O647        C652   1.283       .  A
O648       Ni810   1.923   1_554  S
O648        C651   1.282       .  A
Ni649       O802   1.916       .  S
Ni649       O803   1.907       .  S
Ni650       O805   1.907       .  S
Ni650       O808   1.921       .  S
C652        C794   1.472       .  S
C653        C788   1.422       .  S
C654        C792   1.424       .  S
O655       Ni663   1.919       .  S
O656       Ni663   1.916       .  S
O657       Ni663   1.911       .  S
O658       Ni663   1.915       .  S
O659       Ni664   1.922       .  S
O659        C668   1.282       .  A
O660       Ni664   1.923       .  S
O660        C667   1.282   1_655  A
O661       Ni664   1.911       .  S
O661        C666   1.279   1_655  A
O662       Ni664   1.910       .  S
O662        C665   1.277       .  A
C665        C789   1.424       .  S
C666        C785   1.422       .  S
C667        C781   1.474       .  S
O669       Ni675   1.929       .  S
O669       C1010   1.279       .  A
O670       Ni693   1.906       .  S
O670        C839   1.275       .  A
O671        H694   0.967       .  S
O671       Ni835   1.909   1_554  S
O671      Ni1007   1.936       .  S
C672        O689   1.280       .  A
C672        C797   1.479       .  S
O673       Ni692   1.932   1_565  S
O673        C999   1.281   1_554  A
O674       Ni692   1.960       .  S
O674        C676   1.277       .  A
Ni675       O678   1.922       .  S
Ni675       O680   1.947       .  S
Ni675       O831   1.905       .  S
C676        C775   1.555       .  S
O677       Ni693   1.924       .  S
O677        C683   1.278       .  A
C679        O830   1.275       .  A
C679        O993   1.282   1_556  A
C679        C765   1.476       .  S
O680        C682   1.273       .  A
O681       Ni692   1.921       .  S
C682        C773   1.542       .  S
C683        C793   1.477       .  S
H684        O685   0.966       .  S
O685      Ni1013   1.936   1_545  S
O685       Ni852   1.909       .  S
O686       Ni687   2.045       .  S
Ni687       O691   1.906       .  S
Ni687       O689   1.928       .  S
Ni687       O991   1.937   1_545  S
O688       Ni693   2.046       .  S
C690        O989   1.279   1_545  A
C690        O851   1.277       .  A
C690        C770   1.474       .  S
O691        C850   1.274   1_545  A
Ni692       O845   1.905   1_554  S
Ni693      O1005   1.932       .  S
O695       Ni701   1.936       .  S
O695       C1036   1.280       .  A
O696       Ni719   1.919       .  S
O696        C705   1.277       .  A
O697        H720   0.967       .  S
O697       Ni701   1.908       .  S
O697      Ni1033   1.933       .  S
C698        O715   1.279       .  A
C698        C782   1.479       .  S
O699       Ni718   1.933       .  S
O699       C1025   1.279   1_545  A
O700       Ni718   1.953       .  S
O700        C702   1.275       .  A
Ni701       O704   1.925       .  S
Ni701       O706   1.960       .  S
C702        C774   1.550       .  S
O703       Ni719   1.939       .  S
O703        C709   1.287       .  A
C705       O1019   1.279       .  A
C705        C757   1.481       .  S
O706        C708   1.277       .  A
O707       Ni718   1.924       .  S
C708        C776   1.550       .  S
C709        C777   1.481       .  S
H710        O711   0.967       .  S
O711      Ni1039   1.936   1_545  S
O711       Ni718   1.908       .  S
O712       Ni713   2.052       .  S
Ni713       O717   1.915       .  S
Ni713       O715   1.926       .  S
Ni713      O1017   1.935   1_545  S
O714       Ni719   2.047       .  S
C716       O1015   1.279   1_545  A
C716        O717   1.277       .  A
C716        C761   1.478       .  S
Ni719      O1031   1.942       .  S
O721       Ni729   1.920       .  S
O721       C1211   1.282       .  A
O722       Ni729   1.921       .  S
O722       C1052   1.282   1_545  A
O723       Ni729   1.908       .  S
O723       C1053   1.277       .  A
O724       Ni889   1.910   1_565  S
O724       C1054   1.279       .  A
O725       Ni730   1.912       .  S
O725        C734   1.277       .  A
O726       Ni890   1.910       .  S
O726        C733   1.279       .  A
O727       Ni730   1.924       .  S
O727        C892   1.283   1_554  A
O728       Ni730   1.926       .  S
O728        C731   1.283       .  A
Ni729       O884   1.898       .  S
Ni729     Ni1210   2.395   1_545  S
Ni730       O886   1.902   1_554  S
Ni730     Ni1209   2.393       .  S
C731       O1201   1.280       .  A
C731        C766   1.474       .  S
C732       O1042   1.282       .  A
C732        O887   1.280       .  A
C732        C769   1.469       .  S
C733       O1043   1.278       .  A
C733        C749   1.426       .  S
C734       O1044   1.280       .  A
C734        C753   1.430       .  S
O735       Ni743   1.917       .  S
O735        C745   1.280       .  A
O736       Ni743   1.917       .  S
O736        C746   1.281   1_545  A
O737       Ni743   1.918       .  S
O737        C747   1.279       .  A
O738       Ni743   1.907       .  S
O738        C748   1.278   1_545  A
O739       Ni744   1.923       .  S
O739       C1068   1.281       .  A
O740       Ni744   1.907       .  S
O740       C1067   1.278       .  A
O741       Ni744   1.926       .  S
O741       C1066   1.282       .  A
O742       Ni744   1.925       .  S
O742       C1065   1.282       .  A
Ni743     Ni1064   2.395   1_545  S
Ni744     Ni1063   2.393       .  S
C745       O1062   1.282   1_545  A
C745        C762   1.470       .  S
C746       O1061   1.281       .  A
C746       C1078   1.470       .  S
C747       O1060   1.277   1_545  A
C747        C752   1.424       .  S
C748       O1059   1.279       .  A
C748        C756   1.427       .  S
C749        C750   1.200       .  T
C750        C751   1.402       .  S
C751       C1072   1.200       .  T
C752       C1071   1.199       .  T
C753        C754   1.203       .  T
C754        C755   1.407       .  S
C755       C1076   1.202       .  T
C756       C1075   1.200       .  T
C757        C758   1.345       .  D
C757        H759   1.087       .  S
C758       C1066   1.478       .  S
C758       H1080   1.086       .  S
H760       C1078   1.087       .  S
C761        C762   1.344       .  D
C761        H763   1.087   1_545  S
C762        H764   1.086       .  S
C765        C766   1.343   1_556  D
C765        H767   1.087       .  S
C766       H1248   1.087       .  S
H768       C1246   1.087       .  S
C769       C1090   1.344       .  D
C769       H1091   1.087       .  S
C770       C1089   1.344   1_545  D
C770       H1252   1.086       .  S
H771       C1089   1.087       .  S
H772       C1250   1.087       .  S
C777        C778   1.342       .  D
C778        H780   1.087       .  S
C781        C782   1.346   1_455  D
C781        H783   1.087       .  S
C782        H784   1.087       .  S
C785        C786   1.198       .  T
C786        C787   1.399       .  S
C787        C788   1.198       .  T
C789        C790   1.199       .  T
C790        C791   1.401       .  S
C791        C792   1.199       .  T
C793        C794   1.344       .  D
C793        H795   1.087       .  S
C797        C798   1.346   1_655  D
C798        H800   1.087       .  S
O801       Ni809   1.915       .  S
O803        C813   1.278   1_655  A
O804       Ni809   1.908       .  S
O804        C814   1.277       .  A
O806       Ni810   1.901       .  S
O807       Ni810   1.927       .  S
O807        C812   1.284       .  A
O808        C811   1.282       .  A
C812        C954   1.477       .  S
C813        C948   1.424       .  S
C814        C952   1.423       .  S
O815       Ni823   1.918       .  S
O816       Ni823   1.916       .  S
O817       Ni823   1.917       .  S
O818       Ni823   1.922       .  S
O819       Ni824   1.917       .  S
O819        C828   1.280       .  A
O820       Ni824   1.918       .  S
O820        C827   1.281   1_655  A
O821       Ni824   1.914       .  S
O821        C826   1.280   1_655  A
O822       Ni824   1.912       .  S
O822        C825   1.278       .  A
C825        C949   1.423       .  S
C826        C945   1.424       .  S
C827        C941   1.481       .  S
O829       Ni835   1.929       .  S
O829       C1170   1.280   1_556  A
O830       Ni853   1.906       .  S
O831        H854   0.966       .  S
O831      Ni1167   1.934       .  S
C832        O849   1.281   1_455  A
C832        C957   1.481   1_455  S
O833       Ni852   1.926       .  S
O833       C1159   1.278   1_545  A
O834       Ni852   1.957       .  S
O834        C836   1.277       .  A
Ni835       O838   1.922       .  S
Ni835       O840   1.961       .  S
C836        C935   1.548       .  S
O837       Ni853   1.927       .  S
O837        C843   1.279       .  A
C839       O1153   1.280       .  A
C839        C925   1.473       .  S
O840        C842   1.278       .  A
O841       Ni852   1.918       .  S
C842        C933   1.556       .  S
C843        C953   1.481       .  S
H844        O845   0.967       .  S
O845      Ni1173   1.934   1_545  S
O846       Ni847   2.050       .  S
Ni847       O851   1.912       .  S
Ni847       O849   1.928       .  S
Ni847      O1151   1.933   1_545  S
O848       Ni853   2.050       .  S
C850       O1149   1.281   1_554  A
C850        C930   1.475   1_565  S
Ni853      O1165   1.935       .  S
O855       Ni861   1.927       .  S
O855       C1196   1.279       .  A
O856       Ni879   1.911       .  S
O856        C865   1.277       .  A
O857        H880   0.967       .  S
O857       Ni861   1.910       .  S
O857      Ni1193   1.944       .  S
C858        O875   1.280   1_455  A
C858        C942   1.481   1_455  S
O859       Ni878   1.927       .  S
O859       C1185   1.278   1_545  A
O860       Ni878   1.952       .  S
O860        C862   1.275       .  A
Ni861       O864   1.930       .  S
Ni861       O866   1.962       .  S
C862        C934   1.549       .  S
O863       Ni879   1.935       .  S
O863        C869   1.282       .  A
C865       O1179   1.280       .  A
C865        C917   1.473       .  S
O866        C868   1.278       .  A
O867       Ni878   1.918       .  S
C868        C936   1.553       .  S
C869        C937   1.477       .  S
H870        O871   0.966       .  S
O871      Ni1199   1.934   1_545  S
O871       Ni878   1.909       .  S
O872       Ni873   2.046       .  S
Ni873       O877   1.911       .  S
Ni873       O875   1.927       .  S
Ni873      O1177   1.938   1_545  S
O874       Ni879   2.056       .  S
C876       O1175   1.278   1_545  A
C876        O877   1.276       .  A
C876        C921   1.472       .  S
Ni879      O1191   1.942       .  S
O881       Ni889   1.913       .  S
O881       C1051   1.280   1_545  A
O882       Ni889   1.915       .  S
O882       C1212   1.280   1_545  A
O883       Ni889   1.918   1_556  S
O883       C1213   1.280       .  A
O884       C1214   1.275   1_545  A
O885       Ni890   1.921       .  S
O885        C894   1.280       .  A
O886        C893   1.276       .  A
O887       Ni890   1.915       .  S
O888       Ni890   1.916       .  S
O888        C891   1.281       .  A
Ni889     Ni1050   2.394   1_545  S
Ni890     Ni1049   2.395       .  S
C891       O1041   1.281       .  A
C891        C926   1.471       .  S
C892       O1202   1.280   1_556  A
C892        C929   1.475       .  S
C893       O1203   1.281       .  A
C893        C909   1.429       .  S
C894       O1204   1.277       .  A
C894        C913   1.427       .  S
O895       Ni903   1.920       .  S
O895        C905   1.281   1_545  A
O896       Ni903   1.920       .  S
O896        C906   1.281       .  A
O897       Ni903   1.904       .  S
O897        C907   1.276       .  A
O898       Ni903   1.915       .  S
O898        C908   1.280   1_545  A
O899       Ni904   1.908       .  S
O899       C1228   1.277       .  A
O900       Ni904   1.917       .  S
O900       C1227   1.280       .  A
O901       Ni904   1.923       .  S
O901       C1226   1.282       .  A
O902       Ni904   1.921       .  S
O902       C1225   1.281       .  A
Ni903     Ni1224   2.394   1_545  S
Ni904     Ni1223   2.394       .  S
C905       O1222   1.281       .  A
C905        C922   1.471       .  S
C906       O1221   1.281   1_545  A
C906       C1238   1.473       .  S
C907       O1220   1.280   1_545  A
C907        C912   1.425       .  S
C908       O1219   1.277       .  A
C908        C916   1.426       .  S
C909        C910   1.202       .  T
C910        C911   1.407       .  S
C911       C1232   1.203       .  T
C912       C1231   1.200       .  T
C913        C914   1.201       .  T
C914        C915   1.405       .  S
C915       C1236   1.202       .  T
C916       C1235   1.200       .  T
C917        C918   1.343       .  D
C917        H919   1.086       .  S
C918       C1226   1.474       .  S
C918       H1240   1.087       .  S
H920       C1238   1.087       .  S
C921        C922   1.343   1_545  D
C921        H923   1.086       .  S
C922        H924   1.087       .  S
C925        C926   1.344       .  D
C925        H927   1.087       .  S
C926       H1088   1.087       .  S
H928       C1086   1.087   1_545  S
C929       C1250   1.345   1_556  D
C929       H1251   1.087       .  S
C930       C1249   1.345   1_545  D
C930       H1092   1.087       .  S
H931       C1249   1.087   1_556  S
H932       C1090   1.087       .  S
C937        C938   1.344       .  D
C938        H940   1.087       .  S
C941        C942   1.348   1_455  D
C941        H943   1.086       .  S
C942        H944   1.087       .  S
C945        C946   1.199       .  T
C946        C947   1.401       .  S
C947        C948   1.199       .  T
C949        C950   1.198       .  T
C950        C951   1.400       .  S
C951        C952   1.199       .  T
C953        C954   1.346       .  D
C953        H955   1.086       .  S
C957        C958   1.349   1_655  D
C958        H960   1.086       .  S
O961       Ni969   1.917   1_554  S
O962      Ni1129   1.910       .  S
O963      Ni1129   1.906       .  S
O963        C973   1.278   1_655  A
O964       Ni969   1.909   1_554  S
O964        C974   1.277       .  A
O965      Ni1130   1.905       .  S
O966       Ni970   1.909       .  S
O967       Ni970   1.918       .  S
O967        C972   1.282       .  A
O968      Ni1130   1.920       .  S
O968        C971   1.281       .  A
Ni969      O1122   1.916       .  S
Ni969      O1123   1.908       .  S
Ni970      O1125   1.906       .  S
Ni970      O1128   1.916       .  S
C972       C1114   1.476       .  S
C973       C1108   1.415       .  S
C974       C1112   1.418       .  S
O975       Ni983   1.915       .  S
O976       Ni983   1.912       .  S
O977       Ni983   1.925       .  S
O978       Ni983   1.928       .  S
O979       Ni984   1.924       .  S
O979        C988   1.283       .  A
O980       Ni984   1.928       .  S
O980        C987   1.284   1_655  A
O981       Ni984   1.898       .  S
O981        C986   1.276   1_655  A
O982       Ni984   1.898       .  S
O982        C985   1.274       .  A
C985       C1109   1.419       .  S
C986       C1105   1.415       .  S
C987       C1101   1.481       .  S
O989       Ni995   1.926       .  S
O990      Ni1013   1.908       .  S
O990       C1159   1.274       .  A
O991       H1014   0.966       .  S
O991      Ni1155   1.913   1_554  S
C992       O1009   1.281   1_455  A
C992       C1117   1.481   1_455  S
O993      Ni1012   1.936       .  S
O994      Ni1012   1.957       .  S
O994        C996   1.277       .  A
Ni995       O998   1.920       .  S
Ni995      O1000   1.956       .  S
Ni995      O1151   1.903       .  S
C996       C1095   1.550       .  S
O997      Ni1013   1.924       .  S
O997       C1003   1.279       .  A
C999       O1150   1.276       .  A
C999       C1085   1.479       .  S
O1000      C1002   1.276       .  A
O1001     Ni1012   1.930       .  S
C1002      C1093   1.554       .  S
C1003      C1113   1.478       .  S
H1004      O1005   0.966       .  S
O1005     Ni1172   1.907       .  S
O1006     Ni1007   2.048       .  S
Ni1007     O1011   1.908       .  S
Ni1007     O1009   1.929       .  S
O1008     Ni1013   2.048       .  S
C1010      O1171   1.276       .  A
C1010      C1090   1.473       .  S
O1011      C1170   1.275       .  A
Ni1012     O1165   1.909   1_554  S
O1015     Ni1021   1.929       .  S
O1016     Ni1039   1.909       .  S
O1016      C1025   1.274       .  A
O1017      H1040   0.967       .  S
O1017     Ni1021   1.908       .  S
C1018      O1035   1.281       .  A
C1018      C1102   1.484       .  S
O1019     Ni1038   1.937       .  S
O1020     Ni1038   1.956       .  S
O1020      C1022   1.276       .  A
Ni1021     O1024   1.922       .  S
Ni1021     O1026   1.958       .  S
C1022      C1094   1.548       .  S
O1023     Ni1039   1.935       .  S
O1023      C1029   1.281       .  A
C1025      C1077   1.472       .  S
O1026      C1028   1.276       .  A
O1027     Ni1038   1.932       .  S
C1028      C1096   1.550       .  S
C1029      C1097   1.487       .  S
H1030      O1031   0.967       .  S
O1031     Ni1038   1.909       .  S
O1032     Ni1033   2.043       .  S
Ni1033     O1037   1.918       .  S
Ni1033     O1035   1.928       .  S
O1034     Ni1039   2.047       .  S
C1036      O1037   1.278       .  A
C1036      C1081   1.482       .  S
O1041     Ni1049   1.918       .  S
O1042     Ni1049   1.919       .  S
O1043     Ni1049   1.912       .  S
O1044     Ni1209   1.917       .  S
O1045     Ni1050   1.912       .  S
O1045      C1054   1.278       .  A
O1046     Ni1210   1.913       .  S
O1046      C1053   1.280   1_565  A
O1047     Ni1050   1.925       .  S
O1047      C1212   1.283       .  A
O1048     Ni1050   1.928       .  S
O1048      C1051   1.283       .  A
Ni1049     O1204   1.901       .  S
Ni1050     O1206   1.899   1_554  S
C1051      C1086   1.473       .  S
C1052      O1207   1.280       .  A
C1052      C1089   1.470       .  S
C1053      C1069   1.426       .  S
C1054      C1073   1.427       .  S
O1055     Ni1063   1.926       .  S
O1055      C1065   1.282       .  A
O1056     Ni1063   1.925       .  S
O1056      C1066   1.283       .  A
O1057     Ni1063   1.913       .  S
O1057      C1067   1.278       .  A
O1058     Ni1063   1.901       .  S
O1058      C1068   1.276       .  A
O1059     Ni1064   1.916       .  S
O1060     Ni1064   1.900       .  S
O1061     Ni1064   1.920       .  S
O1062     Ni1064   1.922       .  S
C1065      C1082   1.479       .  S
C1067      C1072   1.425       .  S
C1068      C1076   1.428       .  S
C1069      C1070   1.200       .  T
C1070      C1071   1.402       .  S
C1073      C1074   1.201       .  T
C1074      C1075   1.403       .  S
C1077      C1078   1.341       .  D
C1077      H1079   1.087   1_565  S
C1081      C1082   1.346       .  D
C1081      H1083   1.087       .  S
C1082      H1084   1.086       .  S
C1085      C1086   1.344   1_556  D
C1085      H1087   1.087       .  S
C1097      C1098   1.350       .  D
C1098      H1100   1.086       .  S
C1101      C1102   1.346   1_455  D
C1101      H1103   1.087       .  S
C1102      H1104   1.087       .  S
C1105      C1106   1.194       .  T
C1106      C1107   1.393       .  S
C1107      C1108   1.194       .  T
C1109      C1110   1.196       .  T
C1110      C1111   1.396       .  S
C1111      C1112   1.195       .  T
C1113      C1114   1.346       .  D
C1113      H1115   1.087       .  S
C1117      C1118   1.348   1_655  D
C1118      H1120   1.086       .  S
O1121     Ni1129   1.915       .  S
O1123      C1133   1.279   1_655  A
O1124     Ni1129   1.905       .  S
O1124      C1134   1.277       .  A
O1126     Ni1130   1.905   1_556  S
O1127     Ni1130   1.921   1_556  S
O1127      C1132   1.283       .  A
O1128      C1131   1.281       .  A
C1132      C1274   1.479       .  S
C1133      C1268   1.417       .  S
C1134      C1272   1.415       .  S
O1135     Ni1143   1.912       .  S
O1136     Ni1143   1.911       .  S
O1137     Ni1143   1.928       .  S
O1138     Ni1143   1.931       .  S
O1139     Ni1144   1.930       .  S
O1139      C1148   1.285   1_655  A
O1140     Ni1144   1.931       .  S
O1140      C1147   1.283   1_655  A
O1141     Ni1144   1.904   1_455  S
O1141      C1146   1.278       .  A
O1142     Ni1144   1.901       .  S
O1142      C1145   1.276   1_655  A
C1145      C1269   1.415   1_455  S
C1146      C1265   1.416       .  S
C1147      C1261   1.479       .  S
O1149     Ni1155   1.934       .  S
O1150     Ni1173   1.911       .  S
O1151      H1174   0.967       .  S
C1152      O1169   1.281       .  A
C1152      C1277   1.479       .  S
O1153     Ni1172   1.931       .  S
O1154     Ni1172   1.957       .  S
O1154      C1156   1.277       .  A
Ni1155     O1158   1.927       .  S
Ni1155     O1160   1.960       .  S
C1156      C1255   1.551       .  S
O1157     Ni1173   1.923       .  S
O1157      C1163   1.278       .  A
C1159      C1245   1.472       .  S
O1160      C1162   1.278       .  A
O1161     Ni1172   1.924       .  S
C1162      C1253   1.552       .  S
C1163      C1273   1.480       .  S
H1164      O1165   0.966       .  S
O1166     Ni1167   2.050       .  S
Ni1167     O1171   1.909       .  S
Ni1167     O1169   1.929       .  S
O1168     Ni1173   2.049       .  S
C1170      C1250   1.473       .  S
O1175     Ni1181   1.926       .  S
O1176     Ni1199   1.910       .  S
O1176      C1185   1.275       .  A
O1177      H1200   0.965       .  S
O1177     Ni1181   1.909       .  S
C1178      O1195   1.283   1_455  A
C1178      C1262   1.488       .  S
O1179     Ni1198   1.933       .  S
O1180     Ni1198   1.965       .  S
O1180      C1182   1.278       .  A
Ni1181     O1184   1.922       .  S
Ni1181     O1186   1.961       .  S
C1182      C1254   1.556       .  S
O1183     Ni1199   1.928       .  S
O1183      C1189   1.279       .  A
C1185      C1237   1.472       .  S
O1186      C1188   1.277       .  A
O1187     Ni1198   1.930       .  S
C1188      C1256   1.553       .  S
C1189      C1257   1.487       .  S
H1190      O1191   0.967       .  S
O1191     Ni1198   1.911       .  S
O1192     Ni1193   2.053       .  S
Ni1193     O1197   1.914       .  S
Ni1193     O1195   1.939       .  S
O1194     Ni1199   2.047   1_545  S
C1196      O1197   1.277       .  A
C1196      C1241   1.473       .  S
O1201     Ni1209   1.914       .  S
O1202     Ni1209   1.914       .  S
O1203     Ni1209   1.924   1_556  S
O1205     Ni1210   1.921       .  S
O1205      C1214   1.281       .  A
O1206      C1213   1.276   1_565  A
O1207     Ni1210   1.914       .  S
O1208     Ni1210   1.914       .  S
O1208      C1211   1.280   1_565  A
C1211      C1246   1.472       .  S
C1212      C1249   1.476       .  S
C1213      C1229   1.423       .  S
C1214      C1233   1.425       .  S
O1215     Ni1223   1.918       .  S
O1215      C1225   1.281       .  A
O1216     Ni1223   1.918       .  S
O1216      C1226   1.281       .  A
O1217     Ni1223   1.910       .  S
O1217      C1227   1.278       .  A
O1218     Ni1223   1.919       .  S
O1218      C1228   1.281       .  A
O1219     Ni1224   1.906       .  S
O1220     Ni1224   1.916       .  S
O1221     Ni1224   1.919       .  S
O1222     Ni1224   1.919       .  S
C1225      C1242   1.471       .  S
C1227      C1232   1.430       .  S
C1228      C1236   1.429       .  S
C1229      C1230   1.199       .  T
C1230      C1231   1.402       .  S
C1233      C1234   1.200       .  T
C1234      C1235   1.403       .  S
C1237      C1238   1.343   1_565  D
C1237      H1239   1.086       .  S
C1241      C1242   1.344       .  D
C1241      H1243   1.086       .  S
C1242      H1244   1.087       .  S
C1245      C1246   1.344   1_565  D
C1245      H1247   1.087       .  S
C1257      C1258   1.348       .  D
C1258      H1260   1.086       .  S
C1261      C1262   1.350       .  D
C1261      H1263   1.087       .  S
C1262      H1264   1.086   1_455  S
C1265      C1266   1.194       .  T
C1266      C1267   1.394       .  S
C1267      C1268   1.195       .  T
C1269      C1270   1.194       .  T
C1270      C1271   1.393       .  S
C1271      C1272   1.194       .  T
C1273      C1274   1.346       .  D
C1273      H1275   1.087       .  S
C1277      C1278   1.348   1_655  D
C1278      H1280   1.087       .  S
