geometry optimzed in LAMMPS
_audit_creation_date              2020-11-30 
_audit_creation_method            'lammps2cif' 
_symmetry_space_group_name_H-M    'P1' 
_symmetry_Int_Tables_number       1 
_symmetry_cell_setting            triclinic 
loop_ 
_symmetry_equiv_pos_as_xyz 
  x,y,z 
_cell_length_a                    43.99151499 
_cell_length_b                    43.934637487002156 
_cell_length_c                    49.39131076790605 
_cell_angle_alpha                 89.90389416739977 
_cell_angle_beta                  90.0275028694159 
_cell_angle_gamma                 120.07237023448674 
loop_ 
_atom_site_label 
_atom_site_type_symbol 
_atom_site_fract_x 
_atom_site_fract_y 
_atom_site_fract_z 
_atom_site_charge 
O1          O  0.39223647  0.23005306  0.86941063    -0.76600
C2          C  0.37444491  0.12328504  0.87593826     0.85000
O3          O  0.38487471  0.19073552  0.77749722    -0.77200
O4          O  0.29215148  0.07954233  0.81320406    -0.78600
O5          O  0.26610156  0.15389716  0.87024780    -0.78400
O6          O  0.34189844  0.23074628  0.87063237    -0.77100
Zn7        Zn  0.38268065  0.18814699  0.84635960     1.55700
O8          O  0.26616505  0.10309467  0.86907483    -0.78500
Cd9        Cd  0.30902143  0.18787761  0.84703898     1.59700
Cd10       Cd  0.33408531  0.16479906  0.79242712     1.59600
O11         O  0.29107353  0.20583771  0.81554512    -0.78400
O12         O  0.33444891  0.16399680  0.83302373    -1.89000
Cd13       Cd  0.30949760  0.11393008  0.84566814     1.59900
O14         O  0.30855879  0.19043085  0.77813512    -0.78400
O15         O  0.34260227  0.10371155  0.86878446    -0.77100
C16         C  0.41444259  0.20519804  0.78951092     0.85500
C17         C  0.37400344  0.24356730  0.87716442     0.85100
O18         O  0.39239295  0.15547699  0.86897461    -0.76000
C19         C  0.25295912  0.12165873  0.87670610     0.85900
O20         O  0.41712760  0.20590180  0.81519928    -0.76100
C21         C  0.29318852  0.20478342  0.78989236     0.86100
C22         C  0.29387535  0.08394126  0.78764707     0.86400
O23         O  0.30871195  0.11427428  0.77668199    -0.78500
C24         C  0.16671399  0.33012360  0.68164305     0.00000
C25         C  0.00013664  0.99640743  0.98337641     0.00000
O26         O  0.43335346  0.48894751  0.53572864    -0.76000
C27         C  0.03959598  0.07638539  0.54338528     0.85000
O28         O  0.47517860  0.02288006  0.44369954    -0.77200
O29         O  0.08433642  0.03824517  0.48137430    -0.78600
O30         O  0.00801408  0.43733695  0.53664415    -0.78400
O31         O  0.43191423  0.43747342  0.53649728    -0.77100
Zn32       Zn  0.47531728  0.02109845  0.51258435     1.55700
O33         O  0.05898432  0.48812518  0.53668275    -0.78500
Cd34       Cd  0.47502828  0.44746600  0.51321374     1.59700
Cd35       Cd  0.50036656  0.49718105  0.45929499     1.59600
O36         O  0.45745067  0.41239538  0.48117421    -0.78400
O37         O  0.49982880  0.49725271  0.49990893    -1.89000
Cd38       Cd  0.04865359  0.02064345  0.51306631     1.59900
O39         O  0.47467611  0.44631304  0.44419235    -0.78400
O40         O  0.05888243  0.06364924  0.53665411    -0.77100
C41         C  0.46050298  0.03778558  0.45565592     0.85500
C42         C  0.41938780  0.45695957  0.54318116     0.85100
O43         O  0.00779037  0.06285630  0.53572562    -0.76000
C44         C  0.04000544  0.45609279  0.54374375     0.85900
O45         O  0.45886956  0.03892869  0.48133945    -0.76100
C46         C  0.45945196  0.41622457  0.45555805     0.86100
C47         C  0.08094303  0.03688162  0.45572860     0.86400
O48         O  0.05109524  0.02242924  0.44412019    -0.78500
C49         C  0.33355487  0.16335651  0.34857002     0.00000
C50         C  0.16636698  0.32943658  0.64991904     0.00000
O51         O  0.23435046  0.38905227  0.13031841    -0.76000
C52         C  0.12819843  0.37173766  0.12216615     0.85000
O53         O  0.19221926  0.37972795  0.22178713    -0.77200
O54         O  0.08227705  0.28785661  0.18337357    -0.78600
O55         O  0.15891668  0.26295448  0.12822288    -0.78400
O56         O  0.23547474  0.33884927  0.12951600    -0.77100
Zn57       Zn  0.19194955  0.37919627  0.15286817     1.55700
O58         O  0.10818761  0.26306138  0.12798568    -0.78500
Cd59       Cd  0.19182793  0.30542331  0.15223575     1.59700
Cd60       Cd  0.16645900  0.32927170  0.20621012     1.59600
O61         O  0.20824353  0.28658795  0.18414619    -0.78400
O62         O  0.16737730  0.33058376  0.16561275    -1.89000
Cd63       Cd  0.11796172  0.30585805  0.15172969     1.59900
O64         O  0.19076064  0.30274555  0.22116174    -0.78400
O65         O  0.10857956  0.33955545  0.12856133    -0.77100
C66         C  0.20727161  0.40961512  0.21014769     0.85500
C67         C  0.24822733  0.37099386  0.12293732     0.85100
O68         O  0.16001536  0.38963319  0.12993627    -0.76000
C69         C  0.12705786  0.24998637  0.12087831     0.85900
O70         O  0.20889191  0.41292937  0.18448955    -0.76100
C71         C  0.20568092  0.28771191  0.20975198     0.86100
C72         C  0.08559571  0.28942817  0.20902346     0.86400
O73         O  0.11539837  0.30415922  0.22070483    -0.78500
C74         C  0.00052957  0.99653392  0.01511263     0.00000
C75         C  0.33339390  0.16309509  0.31684762     0.00000
C76         C  0.33888111  0.41772890  0.07889771     0.19500
C77         C  0.36766157  0.44856694  0.08883504    -0.09600
C78         C  0.39960898  0.46422762  0.07488311    -0.10500
C79         C  0.40295124  0.44913571  0.05092426     0.21000
C80         C  0.37413549  0.41839911  0.04086525    -0.12500
C81         C  0.34214026  0.40271660  0.05483633    -0.10800
C82         C  0.43617233  0.46497269  0.03707647     0.02000
C83         C  0.46479173  0.47898169  0.02661970    -0.30800
C84         C  0.30631639  0.40124128  0.09372062     0.03400
C85         C  0.27955752  0.38750340  0.10678892    -0.32500
H86         H  0.36546487  0.46035879  0.10743901     0.14400
H87         H  0.42175396  0.48795708  0.08285692     0.14300
H88         H  0.37647289  0.40648377  0.02237772     0.14100
H89         H  0.32006912  0.37882911  0.04699921     0.13100
C90         C  0.08317228  0.15990772  0.07622934     0.19500
C91         C  0.06009622  0.15413387  0.05472472    -0.09600
C92         C  0.04407122  0.12189615  0.04108346    -0.10500
C93         C  0.05108703  0.09535527  0.04891221     0.21000
C94         C  0.07442561  0.10127847  0.07022606    -0.12500
C95         C  0.09043001  0.13347302  0.08384844    -0.10800
C96         C  0.03363777  0.06166566  0.03573021     0.02000
C97         C  0.01878529  0.03268565  0.02585916    -0.30800
C98         C  0.09877294  0.19251556  0.09097298     0.03400
C99         C  0.11170721  0.21912016  0.10421535    -0.32500
H100        H  0.05425075  0.17437415  0.04869998     0.14400
H101        H  0.02599058  0.11753899  0.02466514     0.14300
H102        H  0.07995751  0.08089447  0.07648122     0.14100
H103        H  0.10817334  0.13762708  0.10047474     0.13100
C104        C  0.05127480  0.44884282  0.04905564     0.19500
C105        C  0.03301721  0.41261030  0.05428174    -0.09600
C106        C  0.04944723  0.39710683  0.06831487    -0.10500
C107        C  0.08421243  0.41776042  0.07719970     0.21000
C108        C  0.10257969  0.45394105  0.07173604    -0.12500
C109        C  0.08614636  0.46944522  0.05770232    -0.10800
C110        C  0.10067199  0.40196433  0.09247539     0.02000
C111        C  0.11372875  0.38843509  0.10578840    -0.30800
C112        C  0.03383876  0.46508680  0.03579664     0.03400
C113        C  0.01893625  0.47913412  0.02585021    -0.32500
H114        H  0.00600179  0.39645232  0.04779248     0.14400
H115        H  0.03495490  0.36912385  0.07247220     0.14300
H116        H  0.12943287  0.47018879  0.07855475     0.14100
H117        H  0.10046467  0.49751218  0.05387402     0.13100
C118        C  0.24879263  0.24117383  0.25491927     0.19500
C119        C  0.23672684  0.20522020  0.25167998    -0.09600
C120        C  0.25309029  0.18954969  0.26553532    -0.10500
C121        C  0.28157592  0.20976809  0.28268489     0.21000
C122        C  0.29338414  0.24562462  0.28618412    -0.12500
C123        C  0.27701634  0.26130177  0.27232411    -0.10800
C124        C  0.29940764  0.19395777  0.29587388     0.02000
C125        C  0.31467728  0.18035563  0.30586362    -0.30800
C126        C  0.23294260  0.25759544  0.23974759     0.03400
C127        C  0.22025540  0.27138571  0.22636120    -0.32500
H128        H  0.21498488  0.18943359  0.23821995     0.14400
H129        H  0.24383704  0.16182012  0.26262693     0.14300
H130        H  0.31546504  0.26150514  0.29933716     0.14100
H131        H  0.28660820  0.28914166  0.27491957     0.13100
C132        C  0.25163915  0.49927913  0.25537452     0.19500
C133        C  0.27316821  0.03292657  0.23938821    -0.09600
C134        C  0.28892247  0.06485750  0.25336366    -0.10500
C135        C  0.28594304  0.06521579  0.28158216     0.21000
C136        C  0.26718087  0.03346784  0.29580311    -0.12500
C137        C  0.28371151  0.51078561  0.26868991    -0.10800
C138        C  0.30199920  0.09827051  0.29570005     0.02000
C139        C  0.31590620  0.12696673  0.30605505    -0.30800
C140        C  0.23599022  0.46718315  0.23996925     0.03400
C141        C  0.22290874  0.44073860  0.22653220    -0.32500
H142        H  0.27558973  0.03300545  0.21755476     0.14400
H143        H  0.30334783  0.08926073  0.24217265     0.14300
H144        H  0.26469711  0.03346289  0.31762686     0.14100
H145        H  0.29666797  0.49534981  0.26789071     0.13100
C146        C  0.43102232  0.21310587  0.28118433     0.19500
C147        C  0.46197602  0.22008191  0.29452151    -0.09600
C148        C  0.99393717  0.23591404  0.28049319    -0.10500
C149        C  0.99501481  0.24482590  0.25310400     0.21000
C150        C  0.46405612  0.23790698  0.23983117    -0.12500
C151        C  0.43215050  0.22208912  0.25383240    -0.10800
C152        C  0.02769349  0.26079412  0.23844723     0.02000
C153        C  0.05443494  0.27397153  0.22536466    -0.30800
C154        C  0.39794846  0.19628719  0.29526373     0.03400
C155        C  0.36932714  0.18165384  0.30572459    -0.32500
H156        H  0.46136704  0.21316688  0.31566014     0.14400
H157        H  0.01771961  0.24110371  0.29094244     0.14300
H158        H  0.46457404  0.24463828  0.21865658     0.14100
H159        H  0.40835436  0.21674260  0.24331764     0.13100
C160        C  0.17084351  0.08202938  0.41072220     0.19500
C161        C  0.18188463  0.06137079  0.39697766    -0.09600
C162        C  0.21389314  0.07737943  0.38303406    -0.10500
C163        C  0.23496428  0.11409956  0.38278558     0.21000
C164        C  0.22373604  0.13475390  0.39626973    -0.12500
C165        C  0.19175133  0.11875879  0.41020045    -0.10800
C166        C  0.26864381  0.13060124  0.36957896     0.02000
C167        C  0.29755412  0.14503416  0.35959270    -0.30800
C168        C  0.13857149  0.06562160  0.42593462     0.03400
C169        C  0.11204227  0.05231644  0.43928936    -0.32500
H170        H  0.16595911  0.03294646  0.39728473     0.14400
H171        H  0.22238784  0.06116303  0.37273807     0.14300
H172        H  0.23988651  0.16316457  0.39627774     0.14100
H173        H  0.18351190  0.13498779  0.42079356     0.13100
C174        C  0.41358453  0.32588039  0.41112045     0.19500
C175        C  0.38691339  0.29554932  0.42358181    -0.09600
C176        C  0.37092332  0.26351290  0.40974226    -0.10500
C177        C  0.38149977  0.26160413  0.38335481     0.21000
C178        C  0.40807184  0.29194582  0.37079947    -0.12500
C179        C  0.42409055  0.32404556  0.38466357    -0.10800
C180        C  0.36537007  0.22832089  0.36953469     0.02000
C181        C  0.35129263  0.19951230  0.35934579    -0.30800
C182        C  0.43032803  0.35862941  0.42572964     0.03400
C183        C  0.44386165  0.38530818  0.43891074    -0.32500
H184        H  0.37860859  0.29663651  0.44403271     0.14400
H185        H  0.35045208  0.24020314  0.41965839     0.14300
H186        H  0.41649588  0.29074226  0.35041547     0.14100
H187        H  0.44472146  0.34732460  0.37484134     0.13100
C188        C  0.38379168  0.11523568  0.38301425     0.19500
C189        C  0.36587081  0.07872025  0.38682863    -0.09600
C190        C  0.38193400  0.06289507  0.40089570    -0.10500
C191        C  0.41596650  0.08353180  0.41120821     0.21000
C192        C  0.43401094  0.12001531  0.40716330    -0.12500
C193        C  0.41794779  0.13583948  0.39309499    -0.10800
C194        C  0.43204030  0.06737812  0.42643147     0.02000
C195        C  0.44517554  0.05386262  0.43961412    -0.30800
C196        C  0.36668281  0.13169151  0.36967687     0.03400
C197        C  0.35193724  0.14577594  0.35958911    -0.32500
H198        H  0.33939630  0.06257592  0.37920030     0.14400
H199        H  0.36772737  0.03467060  0.40395316     0.14300
H200        H  0.46030980  0.13622152  0.41509489     0.14100
H201        H  0.43197284  0.16411796  0.39033923     0.13100
C202        C  0.26478345  0.37982108  0.61538161     0.19500
C203        C  0.27279115  0.40788972  0.59776922    -0.09600
C204        C  0.30487552  0.42441709  0.58397863    -0.10500
C205        C  0.32911925  0.41295870  0.58773298     0.21000
C206        C  0.32126652  0.38510759  0.60556272    -0.12500
C207        C  0.28915399  0.36856678  0.61936529    -0.10800
C208        C  0.36156058  0.42914982  0.57272866     0.02000
C209        C  0.38821037  0.44218361  0.55951807    -0.30800
C210        C  0.23115913  0.36203165  0.62866791     0.03400
C211        C  0.20230121  0.34721144  0.63875025    -0.32500
H212        H  0.25409393  0.41674111  0.59449256     0.14400
H213        H  0.31062443  0.44586245  0.57020281     0.14300
H214        H  0.33978391  0.37597712  0.60857491     0.14100
H215        H  0.28318822  0.34683172  0.63289140     0.13100
C216        C  0.11517293  0.23061647  0.61607622     0.19500
C217        C  0.09221440  0.22521348  0.59458125    -0.09600
C218        C  0.07605449  0.19316720  0.58073201    -0.10500
C219        C  0.08276837  0.16634452  0.58829747     0.21000
C220        C  0.10544515  0.17159519  0.60998911    -0.12500
C221        C  0.12162364  0.20367954  0.62385541    -0.10800
C222        C  0.06710168  0.13389233  0.57330409     0.02000
C223        C  0.05436167  0.10733969  0.55998012    -0.30800
C224        C  0.13286619  0.26419525  0.62946120     0.03400
C225        C  0.14793099  0.29316155  0.63937993    -0.32500
H226        H  0.08711741  0.24589791  0.58834887     0.14400
H227        H  0.05863353  0.18943844  0.56396538     0.14300
H228        H  0.11088398  0.15106534  0.61598139     0.14100
H229        H  0.13940481  0.20761510  0.64040285     0.13100
C230        C  0.11752578  0.37930474  0.61604581     0.19500
C231        C  0.13802998  0.41261416  0.60437659    -0.09600
C232        C  0.12191692  0.42862165  0.59064308    -0.10500
C233        C  0.08524283  0.41137180  0.58852305     0.21000
C234        C  0.06471929  0.37823346  0.60047157    -0.12500
C235        C  0.08083841  0.36222487  0.61421529    -0.10800
C236        C  0.06879066  0.42725340  0.57344992     0.02000
C237        C  0.05541143  0.44043799  0.56017007    -0.30800
C238        C  0.13418605  0.36215416  0.62899041     0.03400
C239        C  0.14848225  0.34749585  0.63885608    -0.32500
H240        H  0.16642852  0.42598130  0.60560883     0.14400
H241        H  0.13802949  0.45421685  0.58142725     0.14300
H242        H  0.03634433  0.36464064  0.59890002     0.14100
H243        H  0.06476448  0.33641050  0.62310780     0.13100
C244        C  0.45168812  0.39794361  0.94953334     0.19500
C245        C  0.41592334  0.37373892  0.95325122    -0.09600
C246        C  0.40023378  0.34165356  0.93941833    -0.10500
C247        C  0.42026019  0.33367673  0.92183030     0.21000
C248        C  0.45609352  0.35776610  0.91832593    -0.12500
C249        C  0.47176894  0.38982642  0.93214487    -0.10800
C250        C  0.40392472  0.30125161  0.90683232     0.02000
C251        C  0.39030109  0.27462606  0.89360937    -0.30800
C252        C  0.46762284  0.43156651  0.96279272     0.03400
C253        C  0.48166408  0.46050395  0.97272598    -0.32500
H254        H  0.40014263  0.37981991  0.96658734     0.14400
H255        H  0.37248208  0.32325304  0.94222178     0.14300
H256        H  0.47180242  0.35191505  0.90472585     0.14100
H257        H  0.49942080  0.40842353  0.92905881     0.13100
C258        C  0.16245078  0.07553603  0.92080057     0.19500
C259        C  0.13561009  0.04192091  0.91342206    -0.09600
C260        C  0.10355903  0.02626446  0.92722287    -0.10500
C261        C  0.09820097  0.04414875  0.94846128     0.21000
C262        C  0.12509916  0.07768449  0.95597695    -0.12500
C263        C  0.15718922  0.09335982  0.94216033    -0.10800
C264        C  0.06479326  0.02829645  0.96200337     0.02000
C265        C  0.03604044  0.01429370  0.97221981    -0.30800
C266        C  0.19502758  0.09193624  0.90603975     0.03400
C267        C  0.22177393  0.10552439  0.89298217    -0.32500
H268        H  0.13937247  0.02795020  0.89689657     0.14400
H269        H  0.08288143  0.00035807  0.92121416     0.14300
H270        H  0.12116983  0.09176410  0.97233125     0.14100
H271        H  0.17775229  0.11940559  0.94797997     0.13100
C272        C  0.41961959  0.07818134  0.92050777     0.19500
C273        C  0.44554250  0.09699519  0.93997720    -0.09600
C274        C  0.46116178  0.08068429  0.95405264    -0.10500
C275        C  0.45089229  0.04550211  0.94871106     0.21000
C276        C  0.42479855  0.02664862  0.92939598    -0.12500
C277        C  0.40919923  0.04293631  0.91534121    -0.10800
C278        C  0.46776469  0.02894879  0.96233477     0.02000
C279        C  0.48214624  0.01451031  0.97249776    -0.30800
C280        C  0.40404304  0.09503131  0.90548249     0.03400
C281        C  0.39072306  0.10836379  0.89226479    -0.32500
H282        H  0.45383470  0.12427221  0.94411611     0.14400
H283        H  0.48139876  0.09554093  0.96888862     0.14300
H284        H  0.41674569  0.99947427  0.92504053     0.14100
H285        H  0.38922128  0.02814495  0.90031616     0.13100
C286        C  0.21659451  0.28196236  0.71667311     0.19500
C287        C  0.24655064  0.30250451  0.73238133    -0.09600
C288        C  0.26253437  0.28667195  0.74653373    -0.10500
C289        C  0.24862271  0.25022003  0.74505150     0.21000
C290        C  0.21884235  0.22970301  0.72913855    -0.12500
C291        C  0.20284862  0.24554828  0.71497398    -0.10800
C292        C  0.26448240  0.23386575  0.76031616     0.02000
C293        C  0.27764076  0.22045496  0.77361145    -0.30800
C294        C  0.19938197  0.29816608  0.70309806     0.03400
C295        C  0.18476308  0.31228479  0.69283793    -0.32500
H296        H  0.25731353  0.33066922  0.73390154     0.14400
H297        H  0.28550996  0.30277755  0.75880877     0.14300
H298        H  0.20783605  0.20148686  0.72788425     0.14100
H299        H  0.17962419  0.22941530  0.70294738     0.13100
C300        C  0.50505658  0.25014654  0.74538998     0.19500
C301        C  0.02987222  0.23977635  0.75055972    -0.09600
C302        C  0.06166958  0.25536104  0.73639807    -0.10500
C303        C  0.06881733  0.28138670  0.71698249     0.21000
C304        C  0.04392386  0.29162553  0.71165275    -0.12500
C305        C  0.01208385  0.27602089  0.72583413    -0.10800
C306        C  0.10211375  0.29817661  0.70320253     0.02000
C307        C  0.13081286  0.31241668  0.69285812    -0.30800
C308        C  0.47267049  0.23450587  0.76043768     0.03400
C309        C  0.44593197  0.22121260  0.77353384    -0.32500
H310        H  0.52473586  0.21982977  0.76564802     0.14400
H311        H  0.08078537  0.24733517  0.74073469     0.14300
H312        H  0.04924056  0.31180671  0.69673279     0.14100
H313        H  0.49309312  0.28426305  0.72169169     0.13100
C314        C  0.21657053  0.42984324  0.71397572     0.19500
C315        C  0.25216048  0.44598692  0.72101797    -0.09600
C316        C  0.26818198  0.47819167  0.73466915    -0.10500
C317        C  0.24881387  0.99479298  0.74181616     0.21000
C318        C  0.21321946  0.47849921  0.73392226    -0.12500
C319        C  0.19719747  0.44629081  0.72026611    -0.10800
C320        C  0.26506342  0.02708004  0.75701212     0.02000
C321        C  0.27840165  0.05341005  0.77059522    -0.30800
C322        C  0.19958168  0.39573423  0.70141423     0.03400
C323        C  0.18497286  0.36647805  0.69201777    -0.32500
H324        H  0.26734550  0.43342971  0.71633539     0.14400
H325        H  0.29642279  0.99210886  0.73844110     0.14300
H326        H  0.19725936  0.98959213  0.74195876     0.14100
H327        H  0.16962720  0.43396901  0.71499531     0.13100
O328        O  0.39165707  0.72955529  0.86918260    -0.76600
C329        C  0.37292259  0.62246686  0.87616141     0.85000
O330        O  0.38459508  0.68986144  0.77737414    -0.77200
O331        O  0.29124765  0.57899071  0.81295709    -0.78600
O332        O  0.26547992  0.65415461  0.86949832    -0.78400
O333        O  0.34156919  0.73074651  0.86999859    -0.77100
Zn334      Zn  0.38192767  0.68744988  0.84625691     1.55700
O335        O  0.26499820  0.60307137  0.86844440    -0.78500
Cd336      Cd  0.30863952  0.68784701  0.84640721     1.59700
Cd337      Cd  0.33370241  0.66421023  0.79208059     1.59600
O338        O  0.29096432  0.70573393  0.81468589    -0.78400
O339        O  0.33380490  0.66355306  0.83268575    -1.89000
Cd340      Cd  0.30845160  0.61349614  0.84537029     1.59900
O341        O  0.30836885  0.68988670  0.77745981    -0.78400
O342        O  0.34110784  0.60305387  0.86887568    -0.77100
C343        C  0.41407188  0.70414714  0.78951771     0.85500
C344        C  0.37358648  0.74334459  0.87672201     0.85100
O345        O  0.39113047  0.65460996  0.86912353    -0.76000
C346        C  0.25201139  0.62187890  0.87594859     0.85900
O347        O  0.41657312  0.70487311  0.81522059    -0.76100
C348        C  0.29306742  0.70442156  0.78905050     0.86100
C349        C  0.29324513  0.58335317  0.78739231     0.86400
O350        O  0.30830015  0.61366940  0.77640492    -0.78500
C351        C  0.16666892  0.83056956  0.68198263     0.00000
C352        C  0.99972082  0.49666332  0.98342946     0.00000
O353        O  0.43273088  0.98869154  0.53512039    -0.76000
C354        C  0.03996121  0.57701219  0.54388065     0.85000
O355        O  0.47549070  0.52301662  0.44424327    -0.77200
O356        O  0.08483162  0.53951434  0.48161393    -0.78600
O357        O  0.00623249  0.93620580  0.53608780    -0.78400
O358        O  0.43042790  0.93680917  0.53526312    -0.77100
Zn359      Zn  0.47579276  0.52147677  0.51312050     1.55700
O360        O  0.05749958  0.98668961  0.53643251    -0.78500
Cd361      Cd  0.47384949  0.94680899  0.51234470     1.59700
Cd362      Cd  0.50005714  0.99705763  0.45872286     1.59600
O363        O  0.45684767  0.91205322  0.48011918    -0.78400
O364        O  0.49917177  0.99672432  0.49932593    -1.89000
Cd365      Cd  0.04940921  0.52164746  0.51343793     1.59900
O366        O  0.47473133  0.94637961  0.44336613    -0.78400
O367        O  0.05939897  0.56449187  0.53706928    -0.77100
C368        C  0.46080861  0.53794382  0.45616204     0.85500
C369        C  0.41828037  0.95653541  0.54221072     0.85100
O370        O  0.00812251  0.56331640  0.53626536    -0.76000
C371        C  0.03816807  0.95466292  0.54340043     0.85900
O372        O  0.45919626  0.53915164  0.48184516    -0.76100
C373        C  0.45936778  0.91617753  0.45453533     0.86100
C374        C  0.08126809  0.53761663  0.45598462     0.86400
O375        O  0.05133739  0.52250842  0.44448481    -0.78500
C376        C  0.33375917  0.66321955  0.34854592     0.00000
C377        C  0.16598339  0.83003014  0.65025836     0.00000
O378        O  0.23421837  0.88855205  0.12996276    -0.76000
C379        C  0.12794185  0.87157148  0.12290430     0.85000
O380        O  0.19307428  0.88041302  0.22182875    -0.77200
O381        O  0.08275638  0.78757392  0.18440560    -0.78600
O382        O  0.15848227  0.76256648  0.12874288    -0.78400
O383        O  0.23517612  0.83826890  0.12936603    -0.77100
Zn384      Zn  0.19216590  0.87903433  0.15286498     1.55700
O385        O  0.10797011  0.76310239  0.12858962    -0.78500
Cd386      Cd  0.19178018  0.80518618  0.15247443     1.59700
Cd387      Cd  0.16725501  0.82971284  0.20660638     1.59600
O388        O  0.20871020  0.78675360  0.18432177    -0.78400
O389        O  0.16762804  0.83058519  0.16597850    -1.89000
Cd390      Cd  0.11802239  0.80583518  0.15249588     1.59900
O391        O  0.19215799  0.80367734  0.22143287    -0.78400
O392        O  0.10829388  0.83950786  0.12961098    -0.77100
C393        C  0.20825706  0.91014225  0.20993876     0.85500
C394        C  0.24794216  0.87034959  0.12258988     0.85100
O395        O  0.15995212  0.88938688  0.13022326    -0.76000
C396        C  0.12663232  0.74981238  0.12144579     0.85900
O397        O  0.20971242  0.91309272  0.18425510    -0.76100
C398        C  0.20681060  0.78842129  0.20994601     0.86100
C399        C  0.08637233  0.78915208  0.21003049     0.86400
O400        O  0.11632180  0.80420822  0.22150423    -0.78500
C401        C  0.00053991  0.49693310  0.01514959     0.00000
C402        C  0.33344796  0.66225414  0.31682905     0.00000
C403        C  0.33848152  0.91686170  0.07835149     0.19500
C404        C  0.36644812  0.94899134  0.08729323    -0.09600
C405        C  0.39841553  0.96479923  0.07335614    -0.10500
C406        C  0.40260438  0.94857056  0.05040133     0.21000
C407        C  0.37459810  0.91652568  0.04133340    -0.12500
C408        C  0.34258269  0.90069472  0.05529054    -0.10800
C409        C  0.43591568  0.96455231  0.03664961     0.02000
C410        C  0.46462896  0.97862806  0.02632753    -0.30800
C411        C  0.30590071  0.90030535  0.09317840     0.03400
C412        C  0.27916187  0.88664333  0.10628647    -0.32500
H413        H  0.36361011  0.96169087  0.10512213     0.14400
H414        H  0.41993153  0.98953296  0.08057884     0.14300
H415        H  0.37759208  0.90371041  0.02364108     0.14100
H416        H  0.32115673  0.87580801  0.04822717     0.13100
C417        C  0.08249626  0.66021486  0.07623395     0.19500
C418        C  0.05338458  0.65100234  0.05954131    -0.09600
C419        C  0.03752472  0.61890080  0.04572917    -0.10500
C420        C  0.05073806  0.59593322  0.04857549     0.21000
C421        C  0.08008257  0.60533599  0.06501258    -0.12500
C422        C  0.09592912  0.63740636  0.07880775    -0.10800
C423        C  0.03349136  0.56216879  0.03552661     0.02000
C424        C  0.01876761  0.53312665  0.02577862    -0.30800
C425        C  0.09804836  0.69254529  0.09132238     0.03400
C426        C  0.11107205  0.71900061  0.10473539    -0.32500
H427        H  0.04274563  0.66841755  0.05745303     0.14400
H428        H  0.01476807  0.61181140  0.03312722     0.14300
H429        H  0.09042217  0.58770117  0.06741788     0.14100
H430        H  0.11837715  0.64423556  0.09170370     0.13100
C431        C  0.05056554  0.94808356  0.04959837     0.19500
C432        C  0.03072464  0.91361358  0.05939940    -0.09600
C433        C  0.04713959  0.89821657  0.07358104    -0.10500
C434        C  0.08348143  0.91721478  0.07805125     0.21000
C435        C  0.10337996  0.95158833  0.06804084    -0.12500
C436        C  0.08695485  0.96699261  0.05385189    -0.10800
C437        C  0.10012768  0.90164181  0.09336384     0.02000
C438        C  0.11330617  0.88821117  0.10664802    -0.30800
C439        C  0.03339499  0.96444795  0.03611853     0.03400
C440        C  0.01867459  0.97857336  0.02599099    -0.32500
H441        H  0.00255555  0.89880359  0.05633051     0.14400
H442        H  0.03147428  0.87164988  0.08126311     0.14300
H443        H  0.13148047  0.96655457  0.07141183     0.14100
H444        H  0.10253212  0.99371874  0.04646299     0.13100
C445        C  0.25080167  0.74231835  0.25464331     0.19500
C446        C  0.23774564  0.70609956  0.25205699    -0.09600
C447        C  0.25399497  0.69020095  0.26575694    -0.10500
C448        C  0.28336856  0.71044630  0.28210707     0.21000
C449        C  0.29624406  0.74660800  0.28491290    -0.12500
C450        C  0.27998698  0.76251895  0.27120133    -0.10800
C451        C  0.30080672  0.69422595  0.29531837     0.02000
C452        C  0.31550940  0.68012195  0.30546237    -0.30800
C453        C  0.23484251  0.75883504  0.23971161     0.03400
C454        C  0.22184908  0.77245913  0.22647435    -0.32500
H455        H  0.21525688  0.69024671  0.23925467     0.14400
H456        H  0.24389503  0.66223365  0.26339423     0.14300
H457        H  0.31900169  0.76251108  0.29745567     0.14100
H458        H  0.29035343  0.79056056  0.27328953     0.13100
C459        C  0.25433862  0.00116174  0.25355244     0.19500
C460        C  0.23521753  0.51954833  0.25652493    -0.09600
C461        C  0.25100181  0.55139782  0.27063857    -0.10500
C462        C  0.28326546  0.56310774  0.28367779     0.21000
C463        C  0.29950433  0.54265445  0.28281255    -0.12500
C464        C  0.25139873  0.00147721  0.28180246    -0.10800
C465        C  0.30036894  0.59679692  0.29686419     0.02000
C466        C  0.31508249  0.62587169  0.30656865    -0.30800
C467        C  0.23790916  0.96840444  0.23897032     0.03400
C468        C  0.22430202  0.94153965  0.22602532    -0.32500
H469        H  0.21045301  0.51093602  0.24626331     0.14400
H470        H  0.23830972  0.56709884  0.27108150     0.14300
H471        H  0.32453532  0.55155615  0.29272978     0.14100
H472        H  0.23687237  0.97706484  0.29295662     0.13100
C473        C  0.43158437  0.70963379  0.28190720     0.19500
C474        C  0.46070265  0.73911133  0.29311443    -0.09600
C475        C  0.99285224  0.75531082  0.27934931    -0.10500
C476        C  0.99597022  0.74207566  0.25434252     0.21000
C477        C  0.46691365  0.71241530  0.24328535    -0.12500
C478        C  0.43480866  0.69623852  0.25703140    -0.10800
C479        C  0.02866029  0.75920955  0.23969072     0.02000
C480        C  0.05536781  0.77316000  0.22656254    -0.30800
C481        C  0.39814319  0.69356922  0.29545844     0.03400
C482        C  0.36937010  0.67973233  0.30566409    -0.32500
H483        H  0.45846302  0.74971533  0.31231871     0.14400
H484        H  0.01513952  0.77826165  0.28806841     0.14300
H485        H  0.46900571  0.70198661  0.22395283     0.14100
H486        H  0.41243802  0.67349860  0.24816349     0.13100
C487        C  0.17126499  0.58334644  0.41110763     0.19500
C488        C  0.17960264  0.56346320  0.39365511    -0.09600
C489        C  0.21163176  0.57946958  0.37973749    -0.10500
C490        C  0.23543172  0.61541433  0.38322172     0.21000
C491        C  0.22694661  0.63535025  0.40047097    -0.12500
C492        C  0.19494153  0.61935746  0.41437718    -0.10800
C493        C  0.26901095  0.63165697  0.36985763     0.02000
C494        C  0.29782877  0.64564805  0.35971350    -0.30800
C495        C  0.13887311  0.56673965  0.42616855     0.03400
C496        C  0.11229027  0.55322589  0.43945944    -0.32500
H497        H  0.16152664  0.53558675  0.39101549     0.14400
H498        H  0.21798607  0.56379203  0.36651019     0.14300
H499        H  0.24521109  0.66313817  0.40337871     0.14100
H500        H  0.18880833  0.63497167  0.42785813     0.13100
C501        C  0.41526827  0.82704670  0.40872060     0.19500
C502        C  0.43557517  0.81271893  0.39955652    -0.09600
C503        C  0.41964631  0.78063835  0.38572399    -0.10500
C504        C  0.38336003  0.76278265  0.38100756     0.21000
C505        C  0.36314053  0.77734000  0.38984526    -0.12500
C506        C  0.37906135  0.80940686  0.40366835    -0.10800
C507        C  0.36661417  0.72883433  0.36822290     0.02000
C508        C  0.35204809  0.69962830  0.35875472    -0.30800
C509        C  0.43130404  0.85919032  0.42407086     0.03400
C510        C  0.44428323  0.88549782  0.43766548    -0.32500
H511        H  0.46357795  0.82609116  0.40341425     0.14400
H512        H  0.43549250  0.76952991  0.37906442     0.14300
H513        H  0.33503730  0.76366639  0.38639842     0.14100
H514        H  0.36309787  0.82019718  0.41072430     0.13100
C515        C  0.38329433  0.61467429  0.38355877     0.19500
C516        C  0.36353119  0.57956906  0.39198470    -0.09600
C517        C  0.37973345  0.56385994  0.40601477    -0.10500
C518        C  0.41576230  0.58319540  0.41168553     0.21000
C519        C  0.43559732  0.61821424  0.40303342    -0.12500
C520        C  0.41938760  0.63392876  0.38899904    -0.10800
C521        C  0.43214570  0.56731771  0.42688313     0.02000
C522        C  0.44542189  0.55394242  0.44007709    -0.30800
C523        C  0.36631587  0.63124416  0.37017781     0.03400
C524        C  0.35176176  0.64543622  0.35993452    -0.32500
H525        H  0.33558228  0.56449201  0.38795851     0.14400
H526        H  0.36413951  0.53678876  0.41265191     0.14300
H527        H  0.46346019  0.63342453  0.40735122     0.14100
H528        H  0.43487914  0.66113370  0.38264880     0.13100
C529        C  0.26396672  0.88071216  0.61491432     0.19500
C530        C  0.27184938  0.90844346  0.59696957    -0.09600
C531        C  0.30379593  0.92463266  0.58296629    -0.10500
C532        C  0.32802340  0.91316856  0.58683206     0.21000
C533        C  0.32028022  0.88564603  0.60497508    -0.12500
C534        C  0.28831654  0.86944963  0.61898668    -0.10800
C535        C  0.36037415  0.92905748  0.57169090     0.02000
C536        C  0.38701803  0.94188079  0.55846529    -0.30800
C537        C  0.23048873  0.86320512  0.62845654     0.03400
C538        C  0.20178339  0.84830079  0.63880759    -0.32500
H539        H  0.25316920  0.91729611  0.59360845     0.14400
H540        H  0.30945666  0.94583006  0.56895497     0.14300
H541        H  0.33877770  0.87651154  0.60808637     0.14100
H542        H  0.28244966  0.84796759  0.63275821     0.13100
C543        C  0.11551316  0.73122996  0.61646239     0.19500
C544        C  0.09279104  0.72589166  0.59481448    -0.09600
C545        C  0.07662367  0.69381992  0.58102187    -0.10500
C546        C  0.08309130  0.66690809  0.58880159     0.21000
C547        C  0.10555430  0.67209772  0.61063712    -0.12500
C548        C  0.12174618  0.70421873  0.62445117    -0.10800
C549        C  0.06738076  0.63442999  0.57386516     0.02000
C550        C  0.05461257  0.60790377  0.56052177    -0.30800
C551        C  0.13311039  0.76480461  0.62981987     0.03400
C552        C  0.14794407  0.79378591  0.63969535    -0.32500
H553        H  0.08786767  0.74664037  0.58843092     0.14400
H554        H  0.05937575  0.69013243  0.56413879     0.14300
H555        H  0.11080277  0.65149145  0.61678683     0.14100
H556        H  0.13934583  0.70811530  0.64112651     0.13100
C557        C  0.11554106  0.87831507  0.61646299     0.19500
C558        C  0.13581599  0.91158979  0.60469427    -0.09600
C559        C  0.11949508  0.92722932  0.59076156    -0.10500
C560        C  0.08282717  0.90965554  0.58852739     0.21000
C561        C  0.06250294  0.87651449  0.60053618    -0.12500
C562        C  0.07884132  0.86086233  0.61448790    -0.10800
C563        C  0.06625046  0.92531930  0.57333479     0.02000
C564        C  0.05310048  0.93865290  0.55995691    -0.30800
C565        C  0.13253593  0.86162391  0.62961114     0.03400
C566        C  0.14740167  0.84753244  0.63947317    -0.32500
H567        H  0.16421771  0.92523074  0.60601618     0.14400
H568        H  0.13545513  0.95282311  0.58149964     0.14300
H569        H  0.03413071  0.86266728  0.59887488     0.14100
H570        H  0.06293931  0.83505537  0.62343835     0.13100
C571        C  0.45171580  0.89782486  0.94912244     0.19500
C572        C  0.41573233  0.87408602  0.95229497    -0.09600
C573        C  0.39993734  0.84201360  0.93842972    -0.10500
C574        C  0.42006746  0.83356565  0.92134474     0.21000
C575        C  0.45610487  0.85720169  0.91836627    -0.12500
C576        C  0.47188631  0.88925183  0.93221746    -0.10800
C577        C  0.40365826  0.80111473  0.90634362     0.02000
C578        C  0.38997092  0.77445678  0.89313922    -0.30800
C579        C  0.46781815  0.93141225  0.96248238     0.03400
C580        C  0.48197616  0.96029252  0.97254254    -0.32500
H581        H  0.39987389  0.88050953  0.96524974     0.14400
H582        H  0.37203312  0.82398023  0.94082977     0.14300
H583        H  0.47190788  0.85099944  0.90516019     0.14100
H584        H  0.49970799  0.90747710  0.92954682     0.13100
C585        C  0.16137321  0.57616619  0.91985995     0.19500
C586        C  0.13399248  0.54318140  0.91179634    -0.09600
C587        C  0.10203980  0.52748622  0.92572712    -0.10500
C588        C  0.09732535  0.54470548  0.94777839     0.21000
C589        C  0.12474509  0.57762463  0.95595198    -0.12500
C590        C  0.15673820  0.59333947  0.94200440    -0.10800
C591        C  0.06407949  0.52878376  0.96154864     0.02000
C592        C  0.03546280  0.51469996  0.97198487    -0.30800
C593        C  0.19393460  0.59252805  0.90509402     0.03400
C594        C  0.22071982  0.60598770  0.89209221    -0.32500
H595        H  0.13728180  0.52971577  0.89467100     0.14400
H596        H  0.08095694  0.50205739  0.91921557     0.14300
H597        H  0.12131366  0.59118151  0.97294583     0.14100
H598        H  0.17773388  0.61889176  0.94836523     0.13100
C599        C  0.41765337  0.57718115  0.92104934     0.19500
C600        C  0.44007324  0.59438974  0.94292050    -0.09600
C601        C  0.45591401  0.57824508  0.95693079    -0.10500
C602        C  0.44936329  0.54483452  0.94911876     0.21000
C603        C  0.42670614  0.52753389  0.92741795    -0.12500
C604        C  0.41089119  0.54365255  0.91343002    -0.10800
C605        C  0.46660554  0.52862285  0.96269384     0.02000
C606        C  0.48133862  0.51446464  0.97273143    -0.30800
C607        C  0.40205155  0.59402223  0.90604034     0.03400
C608        C  0.38888059  0.60741299  0.89271148    -0.32500
H609        H  0.44552132  0.62033719  0.94897287     0.14400
H610        H  0.47347177  0.59190042  0.97363832     0.14300
H611        H  0.42153820  0.50174389  0.92115753     0.14100
H612        H  0.39364207  0.53011385  0.89654248     0.13100
C613        C  0.21665936  0.78206481  0.71623056     0.19500
C614        C  0.24568516  0.80214260  0.73293428    -0.09600
C615        C  0.26159185  0.78610334  0.74689727    -0.10500
C616        C  0.24854185  0.74990042  0.74423443     0.21000
C617        C  0.21967861  0.72983913  0.72734295    -0.12500
C618        C  0.20375381  0.74589895  0.71336125    -0.10800
C619        C  0.26433977  0.73334604  0.75932087     0.02000
C620        C  0.27753581  0.71996832  0.77261034    -0.30800
C621        C  0.19951575  0.79846877  0.70284837     0.03400
C622        C  0.18493087  0.81276776  0.69283518    -0.32500
H623        H  0.25577856  0.83009892  0.73536975     0.14400
H624        H  0.28383925  0.80184816  0.75994379     0.14300
H625        H  0.20932946  0.70180910  0.72518123     0.14100
H626        H  0.18123533  0.73011530  0.70056347     0.13100
C627        C  0.50497517  0.74918939  0.74575378     0.19500
C628        C  0.03032390  0.73968775  0.75144077    -0.09600
C629        C  0.06221158  0.75557962  0.73739027    -0.10500
C630        C  0.06890825  0.78104224  0.71757440     0.21000
C631        C  0.04348486  0.79040442  0.71173557    -0.12500
C632        C  0.01156311  0.77449714  0.72580263    -0.10800
C633        C  0.10223050  0.79812353  0.70383787     0.02000
C634        C  0.13087965  0.81262276  0.69341257    -0.30800
C635        C  0.47250066  0.73330674  0.76069005     0.03400
C636        C  0.44567308  0.71999471  0.77367518    -0.32500
H637        H  0.52553056  0.72018916  0.76684257     0.14400
H638        H  0.08173470  0.74822586  0.74211390     0.14300
H639        H  0.04844466  0.81013654  0.69649678     0.14100
H640        H  0.49216038  0.78207015  0.72126301     0.13100
C641        C  0.21645302  0.93014281  0.71459214     0.19500
C642        C  0.25249020  0.94715784  0.72025551    -0.09600
C643        C  0.26863676  0.97941597  0.73383748    -0.10500
C644        C  0.24868066  0.49438745  0.74134079     0.21000
C645        C  0.21286580  0.97800153  0.73581618    -0.12500
C646        C  0.19672038  0.94574358  0.72223157    -0.10800
C647        C  0.26469436  0.52656568  0.75667124     0.02000
C648        C  0.27787157  0.55281998  0.77034125    -0.30800
C649        C  0.19946697  0.89606306  0.70197816     0.03400
C650        C  0.18487860  0.86686112  0.69247941    -0.32500
H651        H  0.26796426  0.93526095  0.71452387     0.14400
H652        H  0.29558734  0.49018807  0.74036747     0.14300
H653        H  0.19786273  0.49073458  0.73903890     0.14100
H654        H  0.16881090  0.93274585  0.71803532     0.13100
O655        O  0.89223675  0.23005296  0.86941102    -0.76600
C656        C  0.87444501  0.12328496  0.87593841     0.85000
O657        O  0.88487460  0.19073557  0.77749750    -0.77200
O658        O  0.79215124  0.07954250  0.81320448    -0.78600
O659        O  0.76610164  0.15389740  0.87024816    -0.78400
O660        O  0.84189881  0.23074642  0.87063291    -0.77100
Zn661      Zn  0.88268079  0.18814702  0.84635985     1.55700
O662        O  0.76616517  0.10309504  0.86907519    -0.78500
Cd663      Cd  0.80902164  0.18787789  0.84703943     1.59700
Cd664      Cd  0.83408529  0.16479929  0.79242749     1.59600
O665        O  0.79107390  0.20583814  0.81554557    -0.78400
O666        O  0.83444895  0.16399696  0.83302406    -1.89000
Cd667      Cd  0.80949766  0.11393028  0.84566849     1.59900
O668        O  0.80855888  0.19043117  0.77813552    -0.78400
O669        O  0.84260236  0.10371160  0.86878470    -0.77100
C670        C  0.91444250  0.20519808  0.78951109     0.85500
C671        C  0.87400380  0.24356732  0.87716484     0.85100
O672        O  0.89239309  0.15547682  0.86897470    -0.76000
C673        C  0.75295934  0.12165909  0.87670661     0.85900
O674        O  0.91712756  0.20590178  0.81519943    -0.76100
C675        C  0.79318880  0.20478389  0.78989278     0.86100
C676        C  0.79387529  0.08394154  0.78764747     0.86400
O677        O  0.80871192  0.11427466  0.77668240    -0.78500
C678        C  0.66671416  0.33012365  0.68164294     0.00000
C679        C  0.50013649  0.99640757  0.98337654     0.00000
O680        O  0.93335340  0.48894733  0.53572825    -0.76000
C681        C  0.53959597  0.07638537  0.54338510     0.85000
O682        O  0.97517847  0.02287961  0.44369964    -0.77200
O683        O  0.58433656  0.03824542  0.48137410    -0.78600
O684        O  0.50801387  0.43733676  0.53664422    -0.78400
O685        O  0.93191435  0.43747327  0.53649725    -0.77100
Zn686      Zn  0.97531720  0.02109839  0.51258446     1.55700
O687        O  0.55898436  0.48812516  0.53668303    -0.78500
Cd688      Cd  0.97502829  0.44746585  0.51321360     1.59700
Cd689      Cd  0.00036648  0.49718066  0.45929473     1.59600
O690        O  0.95745056  0.41239504  0.48117416    -0.78400
O691        O  0.99982867  0.49725236  0.49990861    -1.89000
Cd692      Cd  0.54865369  0.02064353  0.51306610     1.59900
O693        O  0.97467598  0.44631258  0.44419238    -0.78400
O694        O  0.55888246  0.06364920  0.53665392    -0.77100
C695        C  0.96050277  0.03778510  0.45565591     0.85500
C696        C  0.91938788  0.45695945  0.54318097     0.85100
O697        O  0.50779024  0.06285621  0.53572553    -0.76000
C698        C  0.54000533  0.45609262  0.54374380     0.85900
O699        O  0.95886952  0.03892851  0.48133944    -0.76100
C700        C  0.95945177  0.41622414  0.45555808     0.86100
C701        C  0.58094302  0.03688185  0.45572840     0.86400
O702        O  0.55109519  0.02242937  0.44411999    -0.78500
C703        C  0.83355474  0.16335597  0.34856986     0.00000
C704        C  0.66636718  0.32943658  0.64991893     0.00000
O705        O  0.73435074  0.38905253  0.13031877    -0.76000
C706        C  0.62819841  0.37173741  0.12216616     0.85000
O707        O  0.69221876  0.37972780  0.22178739    -0.77200
O708        O  0.58227693  0.28785617  0.18337352    -0.78600
O709        O  0.65891721  0.26295464  0.12822289    -0.78400
O710        O  0.73547498  0.33884952  0.12951625    -0.77100
Zn711      Zn  0.69194954  0.37919621  0.15286836     1.55700
O712        O  0.60818787  0.26306133  0.12798562    -0.78500
Cd713      Cd  0.69182819  0.30542339  0.15223594     1.59700
Cd714      Cd  0.66645890  0.32927157  0.20621026     1.59600
O715        O  0.70824379  0.28658808  0.18414645    -0.78400
O716        O  0.66737734  0.33058361  0.16561296    -1.89000
Cd717      Cd  0.61796177  0.30585785  0.15172972     1.59900
O718        O  0.69076069  0.30274568  0.22116197    -0.78400
O719        O  0.60857952  0.33955516  0.12856127    -0.77100
C720        C  0.70727092  0.40961497  0.21014795     0.85500
C721        C  0.74822756  0.37099411  0.12293762     0.85100
O722        O  0.66001537  0.38963301  0.12993630    -0.76000
C723        C  0.62705837  0.24998652  0.12087826     0.85900
O724        O  0.70889156  0.41292922  0.18448981    -0.76100
C725        C  0.70568109  0.28771208  0.20975223     0.86100
C726        C  0.58559547  0.28942755  0.20902338     0.86400
O727        O  0.61539811  0.30415872  0.22070473    -0.78500
C728        C  0.50052954  0.99653413  0.01511274     0.00000
C729        C  0.83339420  0.16309504  0.31684745     0.00000
C730        C  0.83888132  0.41772914  0.07889815     0.19500
C731        C  0.86766187  0.44856686  0.08883570    -0.09600
C732        C  0.89960936  0.46422774  0.07488378    -0.10500
C733        C  0.90295147  0.44913603  0.05092467     0.21000
C734        C  0.87413561  0.41839980  0.04086539    -0.12500
C735        C  0.84214037  0.40271716  0.05483648    -0.10800
C736        C  0.93617263  0.46497319  0.03707691     0.02000
C737        C  0.96479202  0.47898229  0.02662011    -0.30800
C738        C  0.80631665  0.40124158  0.09372109     0.03400
C739        C  0.77955779  0.38750372  0.10678936    -0.32500
H740        H  0.86546542  0.46035832  0.10744010     0.14400
H741        H  0.92175419  0.48795677  0.08285755     0.14300
H742        H  0.87647298  0.40648478  0.02237746     0.14100
H743        H  0.82006903  0.37882987  0.04699923     0.13100
C744        C  0.58317314  0.15990822  0.07622913     0.19500
C745        C  0.56009354  0.15413277  0.05472689    -0.09600
C746        C  0.54406838  0.12189513  0.04108559    -0.10500
C747        C  0.55108761  0.09535577  0.04891196     0.21000
C748        C  0.57443002  0.10128070  0.07022334    -0.12500
C749        C  0.59043450  0.13347522  0.08384569    -0.10800
C750        C  0.53363824  0.06166607  0.03573006     0.02000
C751        C  0.51878561  0.03268593  0.02585918    -0.30800
C752        C  0.59877379  0.19251598  0.09097274     0.03400
C753        C  0.61170795  0.21912037  0.10421531    -0.32500
H754        H  0.55424512  0.17437197  0.04870433     0.14400
H755        H  0.52598497  0.11753674  0.02466910     0.14300
H756        H  0.57996413  0.08089770  0.07647692     0.14100
H757        H  0.60818075  0.13763049  0.10047046     0.13100
C758        C  0.55127398  0.44884161  0.04905543     0.19500
C759        C  0.53301533  0.41260973  0.05428411    -0.09600
C760        C  0.54944554  0.39710650  0.06831721    -0.10500
C761        C  0.58421202  0.41775975  0.07719963     0.21000
C762        C  0.60258029  0.45393964  0.07173332    -0.12500
C763        C  0.58614682  0.46944362  0.05769961    -0.10800
C764        C  0.60067183  0.40196387  0.09247531     0.02000
C765        C  0.61372868  0.38843474  0.10578835    -0.30800
C766        C  0.53383816  0.46508577  0.03579642     0.03400
C767        C  0.51893575  0.47913319  0.02584999    -0.32500
H768        H  0.50599882  0.39645169  0.04779636     0.14400
H769        H  0.53495256  0.36912413  0.07247666     0.14300
H770        H  0.62943456  0.47018724  0.07855020     0.14100
H771        H  0.60046564  0.49751019  0.05386981     0.13100
C772        C  0.74879291  0.24117386  0.25491923     0.19500
C773        C  0.73673055  0.20522144  0.25167654    -0.09600
C774        C  0.75309390  0.18955079  0.26553171    -0.10500
C775        C  0.78157621  0.20976802  0.28268463     0.21000
C776        C  0.79338108  0.24562327  0.28618725    -0.12500
C777        C  0.77701335  0.26130062  0.27232738    -0.10800
C778        C  0.79940808  0.19395783  0.29587363     0.02000
C779        C  0.81467763  0.18035569  0.30586355    -0.30800
C780        C  0.73294302  0.25759578  0.23974778     0.03400
C781        C  0.72025572  0.27138599  0.22636141    -0.32500
H782        H  0.71499081  0.18943555  0.23821400     0.14400
H783        H  0.74384340  0.16182240  0.26262062     0.14300
H784        H  0.81545960  0.26150275  0.29934268     0.14100
H785        H  0.78660262  0.28913946  0.27492564     0.13100
C786        C  0.75163846  0.49927914  0.25537470     0.19500
C787        C  0.77316609  0.03292711  0.23938700    -0.09600
C788        C  0.78892042  0.06485808  0.25336243    -0.10500
C789        C  0.78594355  0.06521627  0.28158122     0.21000
C790        C  0.76718373  0.03346831  0.29580230    -0.12500
C791        C  0.78371068  0.51078546  0.26869036    -0.10800
C792        C  0.80199974  0.09827076  0.29569929     0.02000
C793        C  0.81590680  0.12696685  0.30605447    -0.30800
C794        C  0.73598946  0.46718311  0.23996942     0.03400
C795        C  0.72290805  0.44073846  0.22653247    -0.32500
H796        H  0.77558553  0.03300598  0.21755318     0.14400
H797        H  0.80334434  0.08926139  0.24217129     0.14300
H798        H  0.76470152  0.03346320  0.31762625     0.14100
H799        H  0.79666653  0.49534929  0.26789157     0.13100
C800        C  0.93102330  0.21310751  0.28118520     0.19500
C801        C  0.96197392  0.22006532  0.29451826    -0.09600
C802        C  0.49393934  0.23593059  0.28049654    -0.10500
C803        C  0.49501403  0.24482432  0.25310322     0.21000
C804        C  0.96406002  0.23792693  0.23983614    -0.12500
C805        C  0.93215456  0.22210908  0.25383746    -0.10800
C806        C  0.52769294  0.26079307  0.23844679     0.02000
C807        C  0.55443459  0.27397074  0.22536447    -0.30800
C808        C  0.89794920  0.19628800  0.29526423     0.03400
C809        C  0.86932772  0.18165416  0.30572485    -0.32500
H810        H  0.96136245  0.21313603  0.31565363     0.14400
H811        H  0.51772414  0.24113489  0.29094929     0.14300
H812        H  0.96458022  0.24467219  0.21866482     0.14100
H813        H  0.90836078  0.21677693  0.24332577     0.13100
C814        C  0.67084341  0.08202931  0.41072182     0.19500
C815        C  0.68188437  0.06137053  0.39697747    -0.09600
C816        C  0.71389284  0.07737895  0.38303380    -0.10500
C817        C  0.73496411  0.11409922  0.38278515     0.21000
C818        C  0.72373608  0.13475377  0.39626920    -0.12500
C819        C  0.69175146  0.11875884  0.41019998    -0.10800
C820        C  0.76864351  0.13060055  0.36957849     0.02000
C821        C  0.79755384  0.14503348  0.35959229    -0.30800
C822        C  0.63857148  0.06562168  0.42593447     0.03400
C823        C  0.61204221  0.05231668  0.43928917    -0.32500
H824        H  0.66595857  0.03294619  0.39728469     0.14400
H825        H  0.72238739  0.06116237  0.37273792     0.14300
H826        H  0.73988673  0.16316483  0.39627710     0.14100
H827        H  0.68351210  0.13498780  0.42079288     0.13100
C828        C  0.91358488  0.32587904  0.41112166     0.19500
C829        C  0.88693262  0.29554221  0.42359090    -0.09600
C830        C  0.87094264  0.26350574  0.40975149    -0.10500
C831        C  0.88150001  0.26160265  0.38335629     0.21000
C832        C  0.90805335  0.29194997  0.37079316    -0.12500
C833        C  0.92407194  0.32404973  0.38465722    -0.10800
C834        C  0.86537002  0.22831997  0.36953540     0.02000
C835        C  0.85129255  0.19951165  0.35934601    -0.30800
C836        C  0.93032798  0.35862862  0.42573017     0.03400
C837        C  0.94386144  0.38530760  0.43891100    -0.32500
H838        H  0.87864300  0.29662537  0.44404779     0.14400
H839        H  0.85048548  0.24019136  0.41967362     0.14300
H840        H  0.91646232  0.29075084  0.35040322     0.14100
H841        H  0.94468783  0.34733341  0.37482862     0.13100
C842        C  0.88379138  0.11523498  0.38301404     0.19500
C843        C  0.86587079  0.07871950  0.38682802    -0.09600
C844        C  0.88193400  0.06289434  0.40089511    -0.10500
C845        C  0.91596634  0.08353120  0.41120800     0.21000
C846        C  0.93401049  0.12001479  0.40716350    -0.12500
C847        C  0.91794730  0.13583888  0.39309520    -0.10800
C848        C  0.93204012  0.06737758  0.42643137     0.02000
C849        C  0.94517542  0.05386215  0.43961402    -0.30800
C850        C  0.86668245  0.13169072  0.36967668     0.03400
C851        C  0.85193692  0.14577522  0.35958895    -0.32500
H852        H  0.83939623  0.06257517  0.37919932     0.14400
H853        H  0.86772782  0.03466969  0.40395208     0.14300
H854        H  0.96030919  0.13622120  0.41509556     0.14100
H855        H  0.93197231  0.16411749  0.39033953     0.13100
C856        C  0.76478353  0.37982105  0.61538134     0.19500
C857        C  0.77279122  0.40788977  0.59776904    -0.09600
C858        C  0.80487567  0.42441713  0.58397846    -0.10500
C859        C  0.82911934  0.41295857  0.58773257     0.21000
C860        C  0.82126667  0.38510746  0.60556225    -0.12500
C861        C  0.78915414  0.36856665  0.61936481    -0.10800
C862        C  0.86156069  0.42914985  0.57272838     0.02000
C863        C  0.88821041  0.44218346  0.55951776    -0.30800
C864        C  0.73115923  0.36203151  0.62866771     0.03400
C865        C  0.70230134  0.34721136  0.63875008    -0.32500
H866        H  0.75409395  0.41674114  0.59449245     0.14400
H867        H  0.81062464  0.44586259  0.57020253     0.14300
H868        H  0.83978393  0.37597677  0.60857437     0.14100
H869        H  0.78318862  0.34683171  0.63289070     0.13100
C870        C  0.61517315  0.23061641  0.61607628     0.19500
C871        C  0.59221466  0.22521337  0.59458131    -0.09600
C872        C  0.57605474  0.19316718  0.58073203    -0.10500
C873        C  0.58276863  0.16634454  0.58829756     0.21000
C874        C  0.60544541  0.17159510  0.60998924    -0.12500
C875        C  0.62162384  0.20367949  0.62385551    -0.10800
C876        C  0.56710186  0.13389241  0.57330406     0.02000
C877        C  0.55436177  0.10733964  0.55998016    -0.30800
C878        C  0.63286624  0.26419524  0.62946117     0.03400
C879        C  0.64793123  0.29316158  0.63937983    -0.32500
H880        H  0.58711727  0.24589768  0.58834913     0.14400
H881        H  0.55863393  0.18943841  0.56396551     0.14300
H882        H  0.61088410  0.15106522  0.61598154     0.14100
H883        H  0.63940558  0.20761544  0.64040290     0.13100
C884        C  0.61752583  0.37930461  0.61604559     0.19500
C885        C  0.63803007  0.41261420  0.60437648    -0.09600
C886        C  0.62191692  0.42862160  0.59064298    -0.10500
C887        C  0.58524288  0.41137178  0.58852301     0.21000
C888        C  0.56471936  0.37823344  0.60047148    -0.12500
C889        C  0.58083841  0.36222484  0.61421519    -0.10800
C890        C  0.56879060  0.42725325  0.57344991     0.02000
C891        C  0.55541127  0.44043774  0.56017007    -0.30800
C892        C  0.63418608  0.36215400  0.62899033     0.03400
C893        C  0.64848239  0.34749577  0.63885596    -0.32500
H894        H  0.66642857  0.42598117  0.60560852     0.14400
H895        H  0.63802954  0.45421712  0.58142714     0.14300
H896        H  0.53634440  0.36464055  0.59889963     0.14100
H897        H  0.56476437  0.33641033  0.62310733     0.13100
C898        C  0.95168825  0.39794346  0.94953409     0.19500
C899        C  0.91592361  0.37373870  0.95325210    -0.09600
C900        C  0.90023400  0.34165327  0.93941920    -0.10500
C901        C  0.92026039  0.33367653  0.92183107     0.21000
C902        C  0.95609366  0.35776605  0.91832658    -0.12500
C903        C  0.97176909  0.38982645  0.93214559    -0.10800
C904        C  0.90392503  0.30125142  0.90683292     0.02000
C905        C  0.89030131  0.27462592  0.89360990    -0.30800
C906        C  0.96762287  0.43156646  0.96279329     0.03400
C907        C  0.98166396  0.46050391  0.97272646    -0.32500
H908        H  0.90014312  0.37981948  0.96658840     0.14400
H909        H  0.87248244  0.32325321  0.94222255     0.14300
H910        H  0.97180250  0.35191506  0.90472690     0.14100
H911        H  0.99942063  0.40842336  0.92905951     0.13100
C912        C  0.66245081  0.07553638  0.92080091     0.19500
C913        C  0.63560958  0.04192177  0.91342165    -0.09600
C914        C  0.60355858  0.02626529  0.92722245    -0.10500
C915        C  0.59820083  0.04414889  0.94846139     0.21000
C916        C  0.62509950  0.07768403  0.95597783    -0.12500
C917        C  0.65718960  0.09335953  0.94216128    -0.10800
C918        C  0.56479310  0.02829648  0.96200344     0.02000
C919        C  0.53604022  0.01429375  0.97221978    -0.30800
C920        C  0.69502764  0.09193660  0.90604004     0.03400
C921        C  0.72177394  0.10552472  0.89298240    -0.32500
H922        H  0.63937147  0.02795148  0.89689601     0.14400
H923        H  0.58288082  0.00035918  0.92121315     0.14300
H924        H  0.62117040  0.09176333  0.97233245     0.14100
H925        H  0.67775297  0.11940489  0.94798164     0.13100
C926        C  0.91961944  0.07818090  0.92050772     0.19500
C927        C  0.94554065  0.09699395  0.93997852    -0.09600
C928        C  0.96115998  0.08068301  0.95405387    -0.10500
C929        C  0.95089219  0.04550158  0.94871083     0.21000
C930        C  0.92480015  0.02664886  0.92939441    -0.12500
C931        C  0.90920078  0.04293653  0.91533973    -0.10800
C932        C  0.96776474  0.02894862  0.96233468     0.02000
C933        C  0.98214626  0.01451009  0.97249761    -0.30800
C934        C  0.90404289  0.09503103  0.90548255     0.03400
C935        C  0.89072313  0.10836374  0.89226488    -0.32500
H936        H  0.95383164  0.12427041  0.94411843     0.14400
H937        H  0.98139571  0.09553906  0.96889076     0.14300
H938        H  0.91674862  0.99947478  0.92503772     0.14100
H939        H  0.88922405  0.02814582  0.90031365     0.13100
C940        C  0.71659488  0.28196272  0.71667323     0.19500
C941        C  0.74655136  0.30250486  0.73238120    -0.09600
C942        C  0.76253503  0.28667232  0.74653363    -0.10500
C943        C  0.74862293  0.25022038  0.74505198     0.21000
C944        C  0.71884232  0.22970322  0.72913932    -0.12500
C945        C  0.70284861  0.24554853  0.71497468    -0.10800
C946        C  0.76448266  0.23386625  0.76031662     0.02000
C947        C  0.77764097  0.22045537  0.77361183    -0.30800
C948        C  0.69938228  0.29816635  0.70309803     0.03400
C949        C  0.68476344  0.31228503  0.69283775    -0.32500
H950        H  0.75731475  0.33066969  0.73390121     0.14400
H951        H  0.78551084  0.30277803  0.75880867     0.14300
H952        H  0.70783553  0.20148695  0.72788570     0.14100
H953        H  0.67962381  0.22941546  0.70294844     0.13100
C954        C  0.00505636  0.25014643  0.74539020     0.19500
C955        C  0.52987243  0.23977644  0.75055957    -0.09600
C956        C  0.56166978  0.25536115  0.73639790    -0.10500
C957        C  0.56881763  0.28138679  0.71698244     0.21000
C958        C  0.54392423  0.29162563  0.71165262    -0.12500
C959        C  0.51208418  0.27602105  0.72583398    -0.10800
C960        C  0.60211400  0.29817655  0.70320250     0.02000
C961        C  0.63081308  0.31241665  0.69285808    -0.30800
C962        C  0.97267034  0.23450579  0.76043785     0.03400
C963        C  0.94593179  0.22121252  0.77353393    -0.32500
H964        H  0.02473557  0.21982948  0.76564854     0.14400
H965        H  0.58078551  0.24733534  0.74073475     0.14300
H966        H  0.54924101  0.31180679  0.69673271     0.14100
H967        H  0.99309273  0.28426304  0.72169212     0.13100
C968        C  0.71657055  0.42984350  0.71397521     0.19500
C969        C  0.75216059  0.44598719  0.72101754    -0.09600
C970        C  0.76818201  0.47819194  0.73466867    -0.10500
C971        C  0.74881343  0.99479307  0.74181653     0.21000
C972        C  0.71321952  0.47849971  0.73392151    -0.12500
C973        C  0.69719744  0.44629123  0.72026535    -0.10800
C974        C  0.76506311  0.02708019  0.75701242     0.02000
C975        C  0.77840140  0.05341015  0.77059567    -0.30800
C976        C  0.69958181  0.39573435  0.70141386     0.03400
C977        C  0.68497294  0.36647809  0.69201758    -0.32500
H978        H  0.76734557  0.43343005  0.71633513     0.14400
H979        H  0.79642280  0.99210987  0.73844062     0.14300
H980        H  0.69725843  0.98959136  0.74196048     0.14100
H981        H  0.66962730  0.43396947  0.71499420     0.13100
O982        O  0.89165717  0.72955504  0.86918249    -0.76600
C983        C  0.87292226  0.62246632  0.87616114     0.85000
O984        O  0.88459528  0.68986167  0.77737401    -0.77200
O985        O  0.79124778  0.57899082  0.81295655    -0.78600
O986        O  0.76547995  0.65415437  0.86949825    -0.78400
O987        O  0.84156927  0.73074620  0.86999861    -0.77100
Zn988      Zn  0.88192762  0.68744962  0.84625674     1.55700
O989        O  0.76499820  0.60307118  0.86844395    -0.78500
Cd990      Cd  0.80863956  0.68784684  0.84640712     1.59700
Cd991      Cd  0.83370248  0.66421032  0.79208027     1.59600
O992        O  0.79096443  0.70573388  0.81468583    -0.78400
O993        O  0.83380480  0.66355280  0.83268550    -1.89000
Cd994      Cd  0.80845154  0.61349595  0.84536985     1.59900
O995        O  0.80836904  0.68988697  0.77745968    -0.78400
O996        O  0.84110765  0.60305334  0.86887523    -0.77100
C997        C  0.91407203  0.70414719  0.78951767     0.85500
C998        C  0.87358661  0.74334433  0.87672192     0.85100
O999        O  0.89113008  0.65460945  0.86912335    -0.76000
C1000       C  0.75201137  0.62187862  0.87594831     0.85900
O1001       O  0.91657325  0.70487308  0.81522057    -0.76100
C1002       C  0.79306755  0.70442171  0.78905044     0.86100
C1003       C  0.79324514  0.58335330  0.78739175     0.86400
O1004       O  0.80830014  0.61366947  0.77640437    -0.78500
C1005       C  0.66666891  0.83056978  0.68198284     0.00000
C1006       C  0.49972098  0.49666324  0.98342930     0.00000
O1007       O  0.93273075  0.98869156  0.53512055    -0.76000
C1008       C  0.53996134  0.57701226  0.54388111     0.85000
O1009       O  0.97549056  0.52301608  0.44424291    -0.77200
O1010       O  0.58483164  0.53951435  0.48161424    -0.78600
O1011       O  0.50623257  0.93620584  0.53608756    -0.78400
O1012       O  0.93042775  0.93680917  0.53526337    -0.77100
Zn1013     Zn  0.97579267  0.52147657  0.51312008     1.55700
O1014       O  0.55749965  0.98668964  0.53643227    -0.78500
Cd1015     Cd  0.97384929  0.94680884  0.51234492     1.59700
Cd1016     Cd  0.00005711  0.99705737  0.45872306     1.59600
O1017       O  0.95684748  0.91205297  0.48011945    -0.78400
O1018       O  0.99917160  0.99672423  0.49932617    -1.89000
Cd1019     Cd  0.54940923  0.52164750  0.51343830     1.59900
O1020       O  0.97473143  0.94637937  0.44336642    -0.78400
O1021       O  0.55939902  0.56449184  0.53706978    -0.77100
C1022       C  0.96080834  0.53794326  0.45616159     0.85500
C1023       C  0.91828013  0.95653541  0.54221081     0.85100
O1024       O  0.50812261  0.56331651  0.53626590    -0.76000
C1025       C  0.53816814  0.95466295  0.54340024     0.85900
O1026       O  0.95919602  0.53915131  0.48184470    -0.76100
C1027       C  0.95936782  0.91617728  0.45453562     0.86100
C1028       C  0.58126819  0.53761686  0.45598496     0.86400
O1029       O  0.55133753  0.52250892  0.44448517    -0.78500
C1030       C  0.83375897  0.66321943  0.34854595     0.00000
C1031       C  0.66598335  0.83003040  0.65025862     0.00000
O1032       O  0.73421809  0.88855160  0.12996229    -0.76000
C1033       C  0.62794169  0.87157103  0.12290381     0.85000
O1034       O  0.69307445  0.88041338  0.22182834    -0.77200
O1035       O  0.58275637  0.78757404  0.18440540    -0.78600
O1036       O  0.65848226  0.76256598  0.12874306    -0.78400
O1037       O  0.73517593  0.83826867  0.12936577    -0.77100
Zn1038     Zn  0.69216578  0.87903407  0.15286456     1.55700
O1039       O  0.60797008  0.76310185  0.12858973    -0.78500
Cd1040     Cd  0.69178018  0.80518600  0.15247436     1.59700
Cd1041     Cd  0.66725505  0.82971304  0.20660615     1.59600
O1042       O  0.70871042  0.78675384  0.18432178    -0.78400
O1043       O  0.66762798  0.83058509  0.16597838    -1.89000
Cd1044     Cd  0.61802234  0.80583493  0.15249565     1.59900
O1045       O  0.69215802  0.80367757  0.22143271    -0.78400
O1046       O  0.60829390  0.83950740  0.12961046    -0.77100
C1047       C  0.70825723  0.91014248  0.20993823     0.85500
C1048       C  0.74794180  0.87034915  0.12258929     0.85100
O1049       O  0.65995189  0.88938644  0.13022282    -0.76000
C1050       C  0.62663225  0.74981174  0.12144607     0.85900
O1051       O  0.70971250  0.91309273  0.18425459    -0.76100
C1052       C  0.70681083  0.78842164  0.20994599     0.86100
C1053       C  0.58637238  0.78915225  0.21003030     0.86400
O1054       O  0.61632189  0.80420870  0.22150402    -0.78500
C1055       C  0.50053973  0.49693254  0.01514945     0.00000
C1056       C  0.83344776  0.66225414  0.31682908     0.00000
C1057       C  0.83848118  0.91686119  0.07835085     0.19500
C1058       C  0.86644745  0.94899124  0.08729220    -0.09600
C1059       C  0.89841486  0.96479905  0.07335515    -0.10500
C1060       C  0.90260406  0.94856998  0.05040081     0.21000
C1061       C  0.87459813  0.91652471  0.04133328    -0.12500
C1062       C  0.84258271  0.90069379  0.05529036    -0.10800
C1063       C  0.93591552  0.96455185  0.03664930     0.02000
C1064       C  0.96462893  0.97862770  0.02632736    -0.30800
C1065       C  0.80590034  0.90030491  0.09317774     0.03400
C1066       C  0.77916156  0.88664280  0.10628590    -0.32500
H1067       H  0.86360907  0.96169112  0.10512061     0.14400
H1068       H  0.91993068  0.98953313  0.08057750     0.14300
H1069       H  0.87759250  0.90370912  0.02364119     0.14100
H1070       H  0.82115698  0.87580663  0.04822745     0.13100
C1071       C  0.58249614  0.66021358  0.07623504     0.19500
C1072       C  0.55339116  0.65100590  0.05953571    -0.09600
C1073       C  0.53753136  0.61890442  0.04572354    -0.10500
C1074       C  0.55073800  0.59593206  0.04857647     0.21000
C1075       C  0.58007597  0.60533000  0.06502024    -0.12500
C1076       C  0.59592242  0.63740031  0.07881542    -0.10800
C1077       C  0.53349137  0.56216793  0.03552714     0.02000
C1078       C  0.51876744  0.53312596  0.02577882    -0.30800
C1079       C  0.59804828  0.69254430  0.09132309     0.03400
C1080       C  0.61107191  0.71899978  0.10473590    -0.32500
H1081       H  0.54275704  0.66842469  0.05744262     0.14400
H1082       H  0.51477978  0.61181884  0.03311614     0.14300
H1083       H  0.59041034  0.58769157  0.06743063     0.14100
H1084       H  0.61836538  0.64422585  0.09171650     0.13100
C1085       C  0.55056558  0.94808364  0.04959823     0.19500
C1086       C  0.53072487  0.91361295  0.05939792    -0.09600
C1087       C  0.54713973  0.89821574  0.07357938    -0.10500
C1088       C  0.58348135  0.91721449  0.07805085     0.21000
C1089       C  0.60337968  0.95158867  0.06804164    -0.12500
C1090       C  0.58695470  0.96699318  0.05385287    -0.10800
C1091       C  0.60012751  0.90164129  0.09336324     0.02000
C1092       C  0.61330597  0.88821068  0.10664747    -0.30800
C1093       C  0.53339504  0.96444810  0.03611844     0.03400
C1094       C  0.51867457  0.97857351  0.02599100    -0.32500
H1095       H  0.50255592  0.89880272  0.05632846     0.14400
H1096       H  0.53147428  0.87164859  0.08126060     0.14300
H1097       H  0.63148013  0.96655540  0.07141358     0.14100
H1098       H  0.60253192  0.99371980  0.04646500     0.13100
C1099       C  0.75080203  0.74231898  0.25464353     0.19500
C1100       C  0.73774587  0.70610016  0.25205725    -0.09600
C1101       C  0.75399505  0.69020141  0.26575723    -0.10500
C1102       C  0.78336874  0.71044673  0.28210715     0.21000
C1103       C  0.79624435  0.74660856  0.28491290    -0.12500
C1104       C  0.77998737  0.76251959  0.27120129    -0.10800
C1105       C  0.80080692  0.69422637  0.29531849     0.02000
C1106       C  0.81550944  0.68012219  0.30546246    -0.30800
C1107       C  0.73484281  0.75883547  0.23971167     0.03400
C1108       C  0.72184937  0.77245958  0.22647442    -0.32500
H1109       H  0.71525698  0.69024755  0.23925555     0.14400
H1110       H  0.74389484  0.66223400  0.26339442     0.14300
H1111       H  0.81900180  0.76251163  0.29745548     0.14100
H1112       H  0.79035410  0.79056127  0.27328932     0.13100
C1113       C  0.75433890  0.00116223  0.25355138     0.19500
C1114       C  0.73521721  0.51954865  0.25652463    -0.09600
C1115       C  0.75100159  0.55139818  0.27063821    -0.10500
C1116       C  0.78326505  0.56310798  0.28367781     0.21000
C1117       C  0.79950353  0.54265435  0.28281291    -0.12500
C1118       C  0.75140154  0.00147764  0.28180165    -0.10800
C1119       C  0.80036856  0.59679712  0.29686415     0.02000
C1120       C  0.81508217  0.62587187  0.30656854    -0.30800
C1121       C  0.73790939  0.96840476  0.23896946     0.03400
C1122       C  0.72430224  0.94153995  0.22602455    -0.32500
H1123       H  0.71045278  0.51093617  0.24626312     0.14400
H1124       H  0.73830962  0.56709962  0.27108064     0.14300
H1125       H  0.82453477  0.55155586  0.29273058     0.14100
H1126       H  0.73687711  0.97706544  0.29295583     0.13100
C1127       C  0.93158424  0.70963311  0.28190742     0.19500
C1128       C  0.96070168  0.73911265  0.29311337    -0.09600
C1129       C  0.49285312  0.75530963  0.27935030    -0.10500
C1130       C  0.49597030  0.74207639  0.25434237     0.21000
C1131       C  0.96691438  0.71241255  0.24328681    -0.12500
C1132       C  0.93480932  0.69623595  0.25703280    -0.10800
C1133       C  0.52866032  0.75921023  0.23969055     0.02000
C1134       C  0.55536784  0.77316058  0.22656237    -0.30800
C1135       C  0.89814296  0.69356895  0.29545849     0.03400
C1136       C  0.86936991  0.67973215  0.30566416    -0.32500
H1137       H  0.95846137  0.74971793  0.31231684     0.14400
H1138       H  0.51514109  0.77825903  0.28807043     0.14300
H1139       H  0.96900720  0.70198237  0.22395511     0.14100
H1140       H  0.91243909  0.67349427  0.24816586     0.13100
C1141       C  0.67126510  0.58334671  0.41110808     0.19500
C1142       C  0.67960274  0.56346339  0.39365560    -0.09600
C1143       C  0.71163172  0.57946954  0.37973792    -0.10500
C1144       C  0.73543165  0.61541435  0.38322195     0.21000
C1145       C  0.72694658  0.63535044  0.40047116    -0.12500
C1146       C  0.69494159  0.61935769  0.41437740    -0.10800
C1147       C  0.76901078  0.63165697  0.36985777     0.02000
C1148       C  0.79782859  0.64564796  0.35971359    -0.30800
C1149       C  0.63887324  0.56673986  0.42616901     0.03400
C1150       C  0.61229036  0.55322617  0.43945985    -0.32500
H1151       H  0.66152669  0.53558689  0.39101621     0.14400
H1152       H  0.71798596  0.56379158  0.36651080     0.14300
H1153       H  0.74521094  0.66313851  0.40337842     0.14100
H1154       H  0.68880826  0.63497215  0.42785848     0.13100
C1155       C  0.91526847  0.82704659  0.40872090     0.19500
C1156       C  0.93557510  0.81271796  0.39955795    -0.09600
C1157       C  0.91964633  0.78063748  0.38572532    -0.10500
C1158       C  0.88336032  0.76278268  0.38100770     0.21000
C1159       C  0.86314103  0.77734087  0.38984417    -0.12500
C1160       C  0.87906189  0.80940769  0.40366738    -0.10800
C1161       C  0.86661422  0.72883428  0.36822299     0.02000
C1162       C  0.85204806  0.69962824  0.35875474    -0.30800
C1163       C  0.93130417  0.85919008  0.42407122     0.03400
C1164       C  0.94428318  0.88549753  0.43766586    -0.32500
H1165       H  0.96357783  0.82608947  0.40341669     0.14400
H1166       H  0.93549218  0.76952854  0.37906649     0.14300
H1167       H  0.83503832  0.76366773  0.38639656     0.14100
H1168       H  0.86309839  0.82019874  0.41072253     0.13100
C1169       C  0.88329399  0.61467401  0.38355863     0.19500
C1170       C  0.86353064  0.57956876  0.39198481    -0.09600
C1171       C  0.87973290  0.56385961  0.40601480    -0.10500
C1172       C  0.91576195  0.58319479  0.41168516     0.21000
C1173       C  0.93559716  0.61821365  0.40303277    -0.12500
C1174       C  0.91938744  0.63392824  0.38899846    -0.10800
C1175       C  0.93214536  0.56731707  0.42688264     0.02000
C1176       C  0.94542160  0.55394185  0.44007662    -0.30800
C1177       C  0.86631557  0.63124393  0.37017766     0.03400
C1178       C  0.85176152  0.64543610  0.35993449    -0.32500
H1179       H  0.83558152  0.56449222  0.38795928     0.14400
H1180       H  0.86413855  0.53678794  0.41265197     0.14300
H1181       H  0.96346036  0.63342383  0.40735033     0.14100
H1182       H  0.93487908  0.66113333  0.38264795     0.13100
C1183       C  0.76396673  0.88071236  0.61491459     0.19500
C1184       C  0.77184940  0.90844374  0.59696987    -0.09600
C1185       C  0.80379588  0.92463292  0.58296661    -0.10500
C1186       C  0.82802323  0.91316861  0.58683220     0.21000
C1187       C  0.82028005  0.88564602  0.60497521    -0.12500
C1188       C  0.78831643  0.86944968  0.61898677    -0.10800
C1189       C  0.86037402  0.92905757  0.57169109     0.02000
C1190       C  0.88701787  0.94188091  0.55846544    -0.30800
C1191       C  0.73048872  0.86320533  0.62845680     0.03400
C1192       C  0.70178335  0.84830105  0.63880784    -0.32500
H1193       H  0.75316937  0.91729662  0.59360892     0.14400
H1194       H  0.80945659  0.94583042  0.56895534     0.14300
H1195       H  0.83877741  0.87651132  0.60808635     0.14100
H1196       H  0.78244947  0.84796741  0.63275838     0.13100
C1197       C  0.61551335  0.73123034  0.61646255     0.19500
C1198       C  0.59279112  0.72589189  0.59481471    -0.09600
C1199       C  0.57662377  0.69382010  0.58102217    -0.10500
C1200       C  0.58309154  0.66690824  0.58880199     0.21000
C1201       C  0.60555468  0.67209806  0.61063751    -0.12500
C1202       C  0.62174649  0.70421914  0.62445149    -0.10800
C1203       C  0.56738085  0.63442998  0.57386565     0.02000
C1204       C  0.55461276  0.60790379  0.56052222    -0.30800
C1205       C  0.63311048  0.76480497  0.62982002     0.03400
C1206       C  0.64794419  0.79378623  0.63969556    -0.32500
H1207       H  0.58786781  0.74664087  0.58843099     0.14400
H1208       H  0.55937566  0.69013235  0.56413918     0.14300
H1209       H  0.61080282  0.65149151  0.61678763     0.14100
H1210       H  0.63934649  0.70811620  0.64112671     0.13100
C1211       C  0.61554115  0.87831542  0.61646311     0.19500
C1212       C  0.63581598  0.91159014  0.60469463    -0.09600
C1213       C  0.61949508  0.92722963  0.59076186    -0.10500
C1214       C  0.58282724  0.90965563  0.58852730     0.21000
C1215       C  0.56250305  0.87651464  0.60053590    -0.12500
C1216       C  0.57884143  0.86086253  0.61448769    -0.10800
C1217       C  0.56625068  0.92531950  0.57333471     0.02000
C1218       C  0.55310059  0.93865288  0.55995670    -0.30800
C1219       C  0.63253601  0.86162423  0.62961134     0.03400
C1220       C  0.64740168  0.84753272  0.63947342    -0.32500
H1221       H  0.66421760  0.92523139  0.60601689     0.14400
H1222       H  0.63545512  0.95282315  0.58149984     0.14300
H1223       H  0.53413075  0.86266730  0.59887443     0.14100
H1224       H  0.56293965  0.83505558  0.62343763     0.13100
C1225       C  0.95171610  0.89782467  0.94912230     0.19500
C1226       C  0.91573247  0.87408582  0.95229487    -0.09600
C1227       C  0.89993753  0.84201333  0.93842958    -0.10500
C1228       C  0.92006757  0.83356535  0.92134474     0.21000
C1229       C  0.95610511  0.85720134  0.91836636    -0.12500
C1230       C  0.97188654  0.88925150  0.93221752    -0.10800
C1231       C  0.90365847  0.80111443  0.90634357     0.02000
C1232       C  0.88997111  0.77445647  0.89313919    -0.30800
C1233       C  0.96781837  0.93141202  0.96248228     0.03400
C1234       C  0.98197637  0.96029234  0.97254238    -0.32500
H1235       H  0.89987425  0.88050919  0.96524950     0.14400
H1236       H  0.87203302  0.82397998  0.94082933     0.14300
H1237       H  0.97190794  0.85099919  0.90516050     0.14100
H1238       H  0.99970835  0.90747672  0.92954670     0.13100
C1239       C  0.66137333  0.57616577  0.91985985     0.19500
C1240       C  0.63399236  0.54318129  0.91179607    -0.09600
C1241       C  0.60203977  0.52748629  0.92572702    -0.10500
C1242       C  0.59732563  0.54470538  0.94777849     0.21000
C1243       C  0.62474559  0.57762426  0.95595221    -0.12500
C1244       C  0.65673864  0.59333897  0.94200447    -0.10800
C1245       C  0.56407981  0.52878376  0.96154875     0.02000
C1246       C  0.53546311  0.51469997  0.97198496    -0.30800
C1247       C  0.69393466  0.59252785  0.90509383     0.03400
C1248       C  0.72071992  0.60598752  0.89209209    -0.32500
H1249       H  0.63728119  0.52971587  0.89467050     0.14400
H1250       H  0.58095665  0.50205753  0.91921549     0.14300
H1251       H  0.62131478  0.59118124  0.97294619     0.14100
H1252       H  0.67773443  0.61889042  0.94836555     0.13100
C1253       C  0.91765273  0.57718055  0.92104939     0.19500
C1254       C  0.94007553  0.59439085  0.94291875    -0.09600
C1255       C  0.95591628  0.57824628  0.95692917    -0.10500
C1256       C  0.94936274  0.54483413  0.94911897     0.21000
C1257       C  0.92670264  0.52753177  0.92742007    -0.12500
C1258       C  0.91088767  0.54365030  0.91343198    -0.10800
C1259       C  0.96660508  0.52862251  0.96269395     0.02000
C1260       C  0.98133826  0.51446444  0.97273159    -0.30800
C1261       C  0.90205089  0.59402152  0.90604020     0.03400
C1262       C  0.88888008  0.60741230  0.89271119    -0.32500
H1263       H  0.94552562  0.62033934  0.94896974     0.14400
H1264       H  0.97347661  0.59190316  0.97363513     0.14300
H1265       H  0.92153253  0.50174030  0.92116110     0.14100
H1266       H  0.89363662  0.53011049  0.89654579     0.13100
C1267       C  0.71665959  0.78206537  0.71623074     0.19500
C1268       C  0.74568519  0.80214311  0.73293460    -0.09600
C1269       C  0.76159202  0.78610398  0.74689758    -0.10500
C1270       C  0.74854211  0.74990107  0.74423457     0.21000
C1271       C  0.71967902  0.72983980  0.72734295    -0.12500
C1272       C  0.70375414  0.74589961  0.71336130    -0.10800
C1273       C  0.76433995  0.73334645  0.75932093     0.02000
C1274       C  0.77753605  0.71996876  0.77261042    -0.30800
C1275       C  0.69951579  0.79846908  0.70284859     0.03400
C1276       C  0.68493082  0.81276793  0.69283538    -0.32500
H1277       H  0.75577880  0.83009974  0.73536996     0.14400
H1278       H  0.78383943  0.80184874  0.75994398     0.14300
H1279       H  0.70933006  0.70181010  0.72518126     0.14100
H1280       H  0.68123582  0.73011604  0.70056336     0.13100
C1281       C  0.00497501  0.74918943  0.74575362     0.19500
C1282       C  0.53032409  0.73968786  0.75144111    -0.09600
C1283       C  0.56221181  0.75557981  0.73739063    -0.10500
C1284       C  0.56890844  0.78104229  0.71757469     0.21000
C1285       C  0.54348495  0.79040423  0.71173575    -0.12500
C1286       C  0.51156316  0.77449697  0.72580273    -0.10800
C1287       C  0.60223062  0.79812370  0.70383806     0.02000
C1288       C  0.63087975  0.81262313  0.69341277    -0.30800
C1289       C  0.97250063  0.73330674  0.76068998     0.03400
C1290       C  0.94567315  0.71999478  0.77367519    -0.32500
H1291       H  0.02553053  0.72018885  0.76684209     0.14400
H1292       H  0.58173550  0.74822651  0.74211465     0.14300
H1293       H  0.54844445  0.81013605  0.69649680     0.14100
H1294       H  0.99216029  0.78207102  0.72126329     0.13100
C1295       C  0.71645279  0.93014302  0.71459243     0.19500
C1296       C  0.75249022  0.94715861  0.72025511    -0.09600
C1297       C  0.76863661  0.97941664  0.73383713    -0.10500
C1298       C  0.74868076  0.49438788  0.74134017     0.21000
C1299       C  0.71286511  0.97800110  0.73581725    -0.12500
C1300       C  0.69671989  0.94574327  0.72223259    -0.10800
C1301       C  0.76469450  0.52656606  0.75667061     0.02000
C1302       C  0.77787166  0.55282034  0.77034057    -0.30800
C1303       C  0.69946690  0.89606323  0.70197843     0.03400
C1304       C  0.68487849  0.86686133  0.69247959    -0.32500
H1305       H  0.76796461  0.93526234  0.71452267     0.14400
H1306       H  0.79558763  0.49018841  0.74036695     0.14300
H1307       H  0.69786267  0.49073527  0.73903825     0.14100
H1308       H  0.66880998  0.93274488  0.71803688     0.13100
loop_ 
_geom_bond_atom_site_label_1 
_geom_bond_atom_site_label_2 
_geom_bond_distance 
_geom_bond_site_symmetry_2 
_ccdc_geom_bond_type 
O1           C17   1.273       .  A
O1           Zn7   2.023       .  S
C2           O18   1.273       .  A
C2           O15   1.273       .  A
C2          C281   1.436       .  S
O3           C16   1.273       .  A
O3          Cd10   2.069       .  S
O4           C22   1.273       .  A
O4          Cd13   2.071       .  S
O5           C19   1.273       .  A
O5           Cd9   2.069       .  S
O6           C17   1.272       .  A
O6           Cd9   2.067       .  S
Zn7          O18   2.025       .  S
Zn7          O20   2.022       .  S
Zn7          O12   1.951       .  S
O8           C19   1.273       .  A
O8          Cd13   2.071       .  S
Cd9          O11   2.070       .  S
Cd9          O12   2.003       .  S
Cd10         O14   2.072       .  S
Cd10         O23   2.074       .  S
Cd10         O12   2.006       .  S
O11          C21   1.273       .  A
O12         Cd13   2.002       .  S
Cd13         O15   2.068       .  S
O14          C21   1.273       .  A
C16          O20   1.273       .  A
C16         C309   1.435       .  S
C17         C251   1.435       .  S
C19         C267   1.434       .  S
C21         C293   1.435       .  S
C22          O23   1.273       .  A
C22         C321   1.435       .  S
C24          C50   1.567       .  S
C24         C295   1.474       .  S
C24         C307   1.475       .  S
C24         C323   1.475       .  S
C25          C74   1.568   1_556  S
C25         C265   1.474   1_565  S
C25        C1234   1.475   1_455  S
C25         C933   1.475   1_465  S
O26          C42   1.273       .  A
O26        Zn359   2.024       .  S
C27          O43   1.273       .  A
C27          O40   1.273       .  A
C27         C223   1.436       .  S
O28          C41   1.273       .  A
O28        Cd362   2.068   1_545  S
O29          C47   1.273       .  A
O29         Cd38   2.072       .  S
O30          C44   1.273       .  A
O30        Cd688   2.070   1_455  S
O31          C42   1.273       .  A
O31         Cd34   2.068       .  S
Zn32         O45   2.020       .  S
Zn32        O353   2.025   1_545  S
Zn32        O697   2.023       .  S
Zn32        O364   1.951   1_545  S
O33          C44   1.273       .  A
O33        Cd365   2.069       .  S
Cd34         O36   2.071       .  S
Cd34        O684   2.070       .  S
Cd34         O37   2.003       .  S
Cd35         O39   2.074       .  S
Cd35        O355   2.069       .  S
Cd35       O1029   2.074       .  S
Cd35         O37   2.006       .  S
O36          C46   1.273       .  A
O37        Zn359   1.951       .  S
O37       Cd1019   2.003       .  S
Cd38         O40   2.070       .  S
Cd38        O360   2.070   1_545  S
Cd38       O1018   2.003   1_445  S
O39          C46   1.273       .  A
C41          O45   1.273       .  A
C41         C195   1.434       .  S
C42         C209   1.435       .  S
O43        Zn686   2.023   1_455  S
C44         C237   1.434       .  S
C46         C183   1.436       .  S
C47          O48   1.273       .  A
C47         C169   1.435       .  S
O48       Cd1016   2.072   1_545  S
C49          C75   1.567       .  S
C49         C167   1.475       .  S
C49         C181   1.475       .  S
C49         C197   1.473       .  S
C50         C211   1.475       .  S
C50         C225   1.475       .  S
C50         C239   1.473       .  S
O51          C67   1.273       .  A
O51         Zn57   2.024       .  S
C52          O68   1.274       .  A
C52          O65   1.273       .  A
C52         C111   1.436       .  S
O53          C66   1.273       .  A
O53         Cd60   2.068       .  S
O54          C72   1.273       .  A
O54         Cd63   2.070       .  S
O55          C69   1.273       .  A
O55         Cd59   2.069       .  S
O56          C67   1.273       .  A
O56         Cd59   2.067       .  S
Zn57         O68   2.027       .  S
Zn57         O70   2.023       .  S
Zn57         O62   1.952       .  S
O58          C69   1.273       .  A
O58         Cd63   2.072       .  S
Cd59         O61   2.070       .  S
Cd59         O62   2.003       .  S
Cd60         O64   2.072       .  S
Cd60         O73   2.071       .  S
Cd60         O62   2.006       .  S
O61          C71   1.273       .  A
O62         Cd63   2.003       .  S
Cd63         O65   2.068       .  S
O64          C71   1.273       .  A
C66          O70   1.273       .  A
C66         C141   1.435       .  S
C67          C85   1.435       .  S
C69          C99   1.435       .  S
C71         C127   1.434       .  S
C72          O73   1.273       .  A
C72         C153   1.435       .  S
C74          C97   1.474   1_565  S
C74        C1064   1.475   1_455  S
C74         C440   1.476       .  S
C75         C125   1.474       .  S
C75         C139   1.474       .  S
C75         C155   1.474       .  S
C76          C84   1.440       .  S
C76          C77   1.401       .  A
C76          C81   1.402       .  A
C77          C78   1.398       .  A
C77          H86   1.083       .  S
C78          C79   1.401       .  A
C78          H87   1.084       .  S
C79          C82   1.438       .  S
C79          C80   1.401       .  A
C80          C81   1.400       .  A
C80          H88   1.084       .  S
C81          H89   1.083       .  S
C82          C83   1.206       .  T
C83        C1055   1.474       .  S
C84          C85   1.206       .  T
C90          C98   1.439       .  S
C90          C91   1.402       .  A
C90          C95   1.401       .  A
C91          C92   1.400       .  A
C91         H100   1.083       .  S
C92          C93   1.401       .  A
C92         H101   1.084       .  S
C93          C96   1.438       .  S
C93          C94   1.401       .  A
C94          C95   1.398       .  A
C94         H102   1.084       .  S
C95         H103   1.084       .  S
C96          C97   1.206       .  T
C98          C99   1.206       .  T
C104        C112   1.440       .  S
C104        C105   1.401       .  A
C104        C109   1.401       .  A
C105        C106   1.399       .  A
C105        H114   1.083       .  S
C106        C107   1.402       .  A
C106        H115   1.083       .  S
C107        C110   1.441       .  S
C107        C108   1.401       .  A
C108        C109   1.399       .  A
C108        H116   1.083       .  S
C109        H117   1.084       .  S
C110        C111   1.207       .  T
C112        C113   1.207       .  T
C113        C401   1.476       .  S
C118        C126   1.439       .  S
C118        C119   1.401       .  A
C118        C123   1.401       .  A
C119        C120   1.398       .  A
C119        H128   1.083       .  S
C120        C121   1.401       .  A
C120        H129   1.084       .  S
C121        C124   1.437       .  S
C121        C122   1.401       .  A
C122        C123   1.399       .  A
C122        H130   1.084       .  S
C123        H131   1.083       .  S
C124        C125   1.205       .  T
C126        C127   1.205       .  T
C132        C140   1.439       .  S
C132        C137   1.401       .  A
C132        C460   1.401       .  A
C133        C134   1.398       .  A
C133        C459   1.401       .  A
C133        H142   1.084       .  S
C134        C135   1.401       .  A
C134        H143   1.084       .  S
C135        C138   1.438       .  S
C135        C136   1.401       .  A
C136        C464   1.400       .  A
C136        H144   1.083       .  S
C137        C463   1.399       .  A
C137        H145   1.083       .  S
C138        C139   1.206       .  T
C140        C141   1.206       .  T
C146        C154   1.438       .  S
C146        C147   1.401       .  A
C146        C151   1.401       .  A
C147        C802   1.400       .  A
C147        H156   1.083       .  S
C148        C149   1.402       .  A
C148        C801   1.400       .  A
C148        H157   1.083   1_655  S
C149        C152   1.439   1_655  S
C149        C804   1.401       .  A
C150        C151   1.397       .  A
C150        C803   1.401       .  A
C150        H158   1.084       .  S
C151        H159   1.084       .  S
C152        C153   1.206       .  T
C154        C155   1.206       .  T
C160        C168   1.440       .  S
C160        C161   1.402       .  A
C160        C165   1.401       .  A
C161        C162   1.399       .  A
C161        H170   1.083       .  S
C162        C163   1.401       .  A
C162        H171   1.084       .  S
C163        C166   1.438       .  S
C163        C164   1.401       .  A
C164        C165   1.398       .  A
C164        H172   1.084       .  S
C165        H173   1.083       .  S
C166        C167   1.206       .  T
C168        C169   1.206       .  T
C174        C182   1.440       .  S
C174        C175   1.401       .  A
C174        C179   1.402       .  A
C175        C176   1.398       .  A
C175        H184   1.084       .  S
C176        C177   1.401       .  A
C176        H185   1.084       .  S
C177        C180   1.439       .  S
C177        C178   1.402       .  A
C178        C179   1.400       .  A
C178        H186   1.083       .  S
C179        H187   1.083       .  S
C180        C181   1.206       .  T
C182        C183   1.206       .  T
C188        C196   1.437       .  S
C188        C189   1.401       .  A
C188        C193   1.401       .  A
C189        C190   1.398       .  A
C189        H198   1.084       .  S
C190        C191   1.401       .  A
C190        H199   1.083       .  S
C191        C194   1.439       .  S
C191        C192   1.401       .  A
C192        C193   1.398       .  A
C192        H200   1.083       .  S
C193        H201   1.084       .  S
C194        C195   1.205       .  T
C196        C197   1.205       .  T
C202        C210   1.439       .  S
C202        C203   1.401       .  A
C202        C207   1.401       .  A
C203        C204   1.398       .  A
C203        H212   1.084       .  S
C204        C205   1.401       .  A
C204        H213   1.083       .  S
C205        C208   1.440       .  S
C205        C206   1.402       .  A
C206        C207   1.400       .  A
C206        H214   1.083       .  S
C207        H215   1.083       .  S
C208        C209   1.206       .  T
C210        C211   1.206       .  T
C216        C224   1.439       .  S
C216        C217   1.401       .  A
C216        C221   1.401       .  A
C217        C218   1.398       .  A
C217        H226   1.084       .  S
C218        C219   1.401       .  A
C218        H227   1.084       .  S
C219        C222   1.440       .  S
C219        C220   1.402       .  A
C220        C221   1.400       .  A
C220        H228   1.083       .  S
C221        H229   1.084       .  S
C222        C223   1.206       .  T
C224        C225   1.206       .  T
C230        C238   1.437       .  S
C230        C231   1.401       .  A
C230        C235   1.401       .  A
C231        C232   1.398       .  A
C231        H240   1.084       .  S
C232        C233   1.401       .  A
C232        H241   1.083       .  S
C233        C236   1.438       .  S
C233        C234   1.401       .  A
C234        C235   1.399       .  A
C234        H242   1.083       .  S
C235        H243   1.084       .  S
C236        C237   1.205       .  T
C238        C239   1.205       .  T
C244        C252   1.438       .  S
C244        C245   1.401       .  A
C244        C249   1.401       .  A
C245        C246   1.399       .  A
C245        H254   1.084       .  S
C246        C247   1.402       .  A
C246        H255   1.083       .  S
C247        C250   1.439       .  S
C247        C248   1.401       .  A
C248        C249   1.398       .  A
C248        H256   1.083       .  S
C249        H257   1.084       .  S
C250        C251   1.206       .  T
C252        C253   1.206       .  T
C253       C1006   1.474       .  S
C258        C266   1.438       .  S
C258        C259   1.401       .  A
C258        C263   1.402       .  A
C259        C260   1.398       .  A
C259        H268   1.084       .  S
C260        C261   1.401       .  A
C260        H269   1.084       .  S
C261        C264   1.437       .  S
C261        C262   1.401       .  A
C262        C263   1.399       .  A
C262        H270   1.083       .  S
C263        H271   1.083       .  S
C264        C265   1.205       .  T
C266        C267   1.205       .  T
C272        C280   1.440       .  S
C272        C273   1.402       .  A
C272        C277   1.401       .  A
C273        C274   1.400       .  A
C273        H282   1.083       .  S
C274        C275   1.402       .  A
C274        H283   1.084       .  S
C275        C278   1.439       .  S
C275        C276   1.401       .  A
C276        C277   1.398       .  A
C276        H284   1.084   1_545  S
C277        H285   1.084       .  S
C278        C279   1.206       .  T
C279        C679   1.475   1_545  S
C280        C281   1.206       .  T
C286        C294   1.438       .  S
C286        C287   1.401       .  A
C286        C291   1.401       .  A
C287        C288   1.398       .  A
C287        H296   1.084       .  S
C288        C289   1.401       .  A
C288        H297   1.083       .  S
C289        C292   1.439       .  S
C289        C290   1.402       .  A
C290        C291   1.399       .  A
C290        H298   1.083       .  S
C291        H299   1.084       .  S
C292        C293   1.206       .  T
C294        C295   1.206       .  T
C300        C308   1.440       .  S
C300        C955   1.401       .  A
C300        C959   1.402       .  A
C301        C302   1.398       .  A
C301        C954   1.401       .  A
C301        H964   1.084       .  S
C302        C303   1.401       .  A
C302        H311   1.084       .  S
C303        C306   1.439       .  S
C303        C304   1.401       .  A
C304        C305   1.400       .  A
C304        H312   1.084       .  S
C305        C954   1.402       .  A
C305        H967   1.083   1_455  S
C306        C307   1.206       .  T
C308        C309   1.206       .  T
H310        C955   1.083       .  S
H313        C959   1.083       .  S
C314        C322   1.439       .  S
C314        C315   1.401       .  A
C314        C319   1.401       .  A
C315        C316   1.399       .  A
C315        H324   1.084       .  S
C316        C644   1.401       .  A
C316        H652   1.083       .  S
C317        C320   1.440   1_565  S
C317        C643   1.401       .  A
C317        C645   1.401       .  A
C318        C319   1.399       .  A
C318        C644   1.401       .  A
C318        H653   1.083       .  S
C319        H327   1.084       .  S
C320        C321   1.206       .  T
C322        C323   1.206       .  T
H325        C643   1.083       .  S
H326        C645   1.083       .  S
O328        C344   1.273       .  A
O328       Zn334   2.025       .  S
C329        O345   1.273       .  A
C329        O342   1.273       .  A
C329        C608   1.436       .  S
O330        C343   1.273       .  A
O330       Cd337   2.069       .  S
O331        C349   1.273       .  A
O331       Cd340   2.071       .  S
O332        C346   1.273       .  A
O332       Cd336   2.068       .  S
O333        C344   1.273       .  A
O333       Cd336   2.068       .  S
Zn334       O345   2.025       .  S
Zn334       O347   2.022       .  S
Zn334       O339   1.951       .  S
O335        C346   1.273       .  A
O335       Cd340   2.070       .  S
Cd336       O338   2.070       .  S
Cd336       O339   2.003       .  S
Cd337       O341   2.072       .  S
Cd337       O350   2.073       .  S
Cd337       O339   2.006       .  S
O338        C348   1.273       .  A
O339       Cd340   2.003       .  S
Cd340       O342   2.069       .  S
O341        C348   1.273       .  A
C343        O347   1.273       .  A
C343        C636   1.435       .  S
C344        C578   1.436       .  S
C346        C594   1.433       .  S
C348        C620   1.435       .  S
C349        O350   1.273       .  A
C349        C648   1.435       .  S
C351        C377   1.567       .  S
C351        C622   1.474       .  S
C351        C634   1.475       .  S
C351        C650   1.475       .  S
C352        C401   1.567   1_656  S
C352        C907   1.474       .  S
C352        C592   1.473   1_655  S
C352       C1260   1.475       .  S
O353        C369   1.273       .  A
C354        O370   1.273       .  A
C354        O367   1.272       .  A
C354        C550   1.435       .  S
O355        C368   1.273       .  A
O356        C374   1.273       .  A
O356       Cd365   2.071       .  S
O357        C371   1.273       .  A
O357      Cd1015   2.070   1_455  S
O358        C369   1.273       .  A
O358       Cd361   2.069       .  S
Zn359      O1024   2.023       .  S
Zn359       O372   2.021       .  S
O360        C371   1.273       .  A
Cd361      O1011   2.070       .  S
Cd361       O363   2.070       .  S
Cd361       O364   2.003       .  S
Cd362       O366   2.072       .  S
Cd362       O702   2.072   1_565  S
Cd362       O364   2.006       .  S
O363        C373   1.273       .  A
O364       Cd692   2.003   1_565  S
Cd365       O367   2.068       .  S
Cd365       O691   2.003   1_455  S
O366        C373   1.273       .  A
C368        O372   1.273       .  A
C368        C522   1.435       .  S
C369        C536   1.436       .  S
O370      Zn1013   2.023   1_455  S
C371        C564   1.434       .  S
C373        C510   1.435       .  S
C374        O375   1.273       .  A
C374        C496   1.435       .  S
O375       Cd689   2.074       .  S
C376        C402   1.567       .  S
C376        C494   1.475       .  S
C376        C508   1.474       .  S
C376        C524   1.474       .  S
C377        C538   1.475       .  S
C377        C552   1.474       .  S
C377        C566   1.474       .  S
O378        C394   1.273       .  A
O378       Zn384   2.025       .  S
C379        O395   1.274       .  A
C379        O392   1.273       .  A
C379        C438   1.436       .  S
O380        C393   1.273       .  A
O380       Cd387   2.070       .  S
O381        C399   1.273       .  A
O381       Cd390   2.070       .  S
O382        C396   1.273       .  A
O382       Cd386   2.069       .  S
O383        C394   1.273       .  A
O383       Cd386   2.068       .  S
Zn384       O395   2.027       .  S
Zn384       O397   2.022       .  S
Zn384       O389   1.952       .  S
O385        C396   1.273       .  A
O385       Cd390   2.071       .  S
Cd386       O388   2.070       .  S
Cd386       O389   2.003       .  S
Cd387       O391   2.073       .  S
Cd387       O400   2.074       .  S
Cd387       O389   2.007       .  S
O388        C398   1.273       .  A
O389       Cd390   2.003       .  S
Cd390       O392   2.068       .  S
O391        C398   1.273       .  A
C393        O397   1.273       .  A
C393        C468   1.435       .  S
C394        C412   1.436       .  S
C396        C426   1.434       .  S
C398        C454   1.435       .  S
C399        O400   1.273       .  A
C399        C480   1.435       .  S
C401        C737   1.474   1_455  S
C401        C424   1.474       .  S
C402        C452   1.474       .  S
C402        C466   1.474       .  S
C402        C482   1.475       .  S
C403        C411   1.440       .  S
C403        C404   1.401       .  A
C403        C408   1.402       .  A
C404        C405   1.398       .  A
C404        H413   1.083       .  S
C405        C406   1.401       .  A
C405        H414   1.084       .  S
C406        C409   1.439       .  S
C406        C407   1.401       .  A
C407        C408   1.400       .  A
C407        H415   1.084       .  S
C408        H416   1.083       .  S
C409        C410   1.206       .  T
C410        C728   1.475       .  S
C411        C412   1.206       .  T
C417        C425   1.439       .  S
C417        C418   1.402       .  A
C417        C422   1.401       .  A
C418        C419   1.399       .  A
C418        H427   1.083       .  S
C419        C420   1.401       .  A
C419        H428   1.084       .  S
C420        C423   1.437       .  S
C420        C421   1.401       .  A
C421        C422   1.398       .  A
C421        H429   1.084       .  S
C422        H430   1.084       .  S
C423        C424   1.205       .  T
C425        C426   1.205       .  T
C431        C439   1.440       .  S
C431        C432   1.401       .  A
C431        C436   1.402       .  A
C432        C433   1.399       .  A
C432        H441   1.084       .  S
C433        C434   1.402       .  A
C433        H442   1.083       .  S
C434        C437   1.441       .  S
C434        C435   1.402       .  A
C435        C436   1.400       .  A
C435        H443   1.083       .  S
C436        H444   1.083       .  S
C437        C438   1.207       .  T
C439        C440   1.207       .  T
C445        C453   1.439       .  S
C445        C446   1.401       .  A
C445        C450   1.402       .  A
C446        C447   1.398       .  A
C446        H455   1.084       .  S
C447        C448   1.401       .  A
C447        H456   1.084       .  S
C448        C451   1.438       .  S
C448        C449   1.401       .  A
C449        C450   1.399       .  A
C449        H457   1.084       .  S
C450        H458   1.083       .  S
C451        C452   1.206       .  T
C453        C454   1.206       .  T
C459        C467   1.440   1_545  S
C459        C464   1.402       .  A
C460        C461   1.398       .  A
C460        H469   1.083       .  S
C461        C462   1.401       .  A
C461        H470   1.084       .  S
C462        C465   1.438       .  S
C462        C463   1.401       .  A
C463        H471   1.083       .  S
C464        H472   1.083   1_545  S
C465        C466   1.206       .  T
C467        C468   1.206       .  T
C473        C481   1.438       .  S
C473        C474   1.401       .  A
C473        C478   1.401       .  A
C474       C1129   1.400       .  A
C474        H483   1.084       .  S
C475       C1128   1.400       .  A
C475        C476   1.402       .  A
C475        H484   1.083   1_655  S
C476        C479   1.440   1_655  S
C476       C1131   1.401       .  A
C477       C1130   1.401       .  A
C477        C478   1.398       .  A
C477        H485   1.083       .  S
C478        H486   1.084       .  S
C479        C480   1.206       .  T
C481        C482   1.206       .  T
C487        C495   1.440       .  S
C487        C488   1.402       .  A
C487        C492   1.401       .  A
C488        C489   1.400       .  A
C488        H497   1.083       .  S
C489        C490   1.401       .  A
C489        H498   1.084       .  S
C490        C493   1.439       .  S
C490        C491   1.401       .  A
C491        C492   1.398       .  A
C491        H499   1.084       .  S
C492        H500   1.083       .  S
C493        C494   1.206       .  T
C495        C496   1.206       .  T
C501        C509   1.439       .  S
C501        C502   1.401       .  A
C501        C506   1.401       .  A
C502        C503   1.399       .  A
C502        H511   1.083       .  S
C503        C504   1.401       .  A
C503        H512   1.084       .  S
C504        C507   1.438       .  S
C504        C505   1.401       .  A
C505        C506   1.398       .  A
C505        H513   1.084       .  S
C506        H514   1.083       .  S
C507        C508   1.206       .  T
C509        C510   1.206       .  T
C515        C523   1.438       .  S
C515        C516   1.401       .  A
C515        C520   1.401       .  A
C516        C517   1.398       .  A
C516        H525   1.084       .  S
C517        C518   1.401       .  A
C517        H526   1.083       .  S
C518        C521   1.439       .  S
C518        C519   1.401       .  A
C519        C520   1.399       .  A
C519        H527   1.083       .  S
C520        H528   1.084       .  S
C521        C522   1.206       .  T
C523        C524   1.206       .  T
C529        C537   1.439       .  S
C529        C530   1.401       .  A
C529        C534   1.401       .  A
C530        C531   1.399       .  A
C530        H539   1.084       .  S
C531        C532   1.401       .  A
C531        H540   1.083       .  S
C532        C535   1.441       .  S
C532        C533   1.402       .  A
C533        C534   1.400       .  A
C533        H541   1.083       .  S
C534        H542   1.083       .  S
C535        C536   1.207       .  T
C537        C538   1.206       .  T
C543        C551   1.438       .  S
C543        C544   1.401       .  A
C543        C548   1.401       .  A
C544        C545   1.398       .  A
C544        H553   1.084       .  S
C545        C546   1.401       .  A
C545        H554   1.083       .  S
C546        C549   1.440       .  S
C546        C547   1.402       .  A
C547        C548   1.400       .  A
C547        H555   1.083       .  S
C548        H556   1.084       .  S
C549        C550   1.206       .  T
C551        C552   1.206       .  T
C557        C565   1.437       .  S
C557        C558   1.401       .  A
C557        C562   1.401       .  A
C558        C559   1.398       .  A
C558        H567   1.084       .  S
C559        C560   1.401       .  A
C559        H568   1.084       .  S
C560        C563   1.438       .  S
C560        C561   1.401       .  A
C561        C562   1.399       .  A
C561        H569   1.083       .  S
C562        H570   1.084       .  S
C563        C564   1.205       .  T
C565        C566   1.205       .  T
C571        C579   1.439       .  S
C571        C572   1.401       .  A
C571        C576   1.401       .  A
C572        C573   1.400       .  A
C572        H581   1.084       .  S
C573        C574   1.402       .  A
C573        H582   1.083       .  S
C574        C577   1.440       .  S
C574        C575   1.401       .  A
C575        C576   1.399       .  A
C575        H583   1.083       .  S
C576        H584   1.084       .  S
C577        C578   1.206       .  T
C579        C580   1.206       .  T
C580        C679   1.475       .  S
C585        C593   1.438       .  S
C585        C586   1.401       .  A
C585        C590   1.402       .  A
C586        C587   1.397       .  A
C586        H595   1.084       .  S
C587        C588   1.401       .  A
C587        H596   1.084       .  S
C588        C591   1.437       .  S
C588        C589   1.401       .  A
C589        C590   1.399       .  A
C589        H597   1.083       .  S
C590        H598   1.083       .  S
C591        C592   1.205       .  T
C593        C594   1.205       .  T
C599        C607   1.440       .  S
C599        C600   1.402       .  A
C599        C604   1.401       .  A
C600        C601   1.400       .  A
C600        H609   1.083       .  S
C601        C602   1.402       .  A
C601        H610   1.084       .  S
C602        C605   1.439       .  S
C602        C603   1.401       .  A
C603        C604   1.398       .  A
C603        H611   1.084       .  S
C604        H612   1.084       .  S
C605        C606   1.206       .  T
C606       C1006   1.475       .  S
C607        C608   1.206       .  T
C613        C621   1.438       .  S
C613        C614   1.401       .  A
C613        C618   1.401       .  A
C614        C615   1.398       .  A
C614        H623   1.084       .  S
C615        C616   1.401       .  A
C615        H624   1.084       .  S
C616        C619   1.439       .  S
C616        C617   1.402       .  A
C617        C618   1.400       .  A
C617        H625   1.083       .  S
C618        H626   1.084       .  S
C619        C620   1.206       .  T
C621        C622   1.206       .  T
C627        C635   1.440       .  S
C627       C1282   1.401       .  A
C627       C1286   1.402       .  A
C628       C1281   1.401       .  A
C628        C629   1.398       .  A
C628       H1291   1.083       .  S
C629        C630   1.401       .  A
C629        H638   1.084       .  S
C630        C633   1.438       .  S
C630        C631   1.401       .  A
C631        C632   1.400       .  A
C631        H639   1.084       .  S
C632       C1281   1.402       .  A
C632       H1294   1.083   1_455  S
C633        C634   1.206       .  T
C635        C636   1.206       .  T
H637       C1282   1.083       .  S
H640       C1286   1.083       .  S
C641        C649   1.439       .  S
C641        C642   1.401       .  A
C641        C646   1.401       .  A
C642        C643   1.399       .  A
C642        H651   1.084       .  S
C644        C647   1.440       .  S
C645        C646   1.399       .  A
C646        H654   1.084       .  S
C647        C648   1.206       .  T
C649        C650   1.206       .  T
O655        C671   1.273       .  A
O655       Zn661   2.023       .  S
C656        O672   1.273       .  A
C656        O669   1.273       .  A
C656        C935   1.436       .  S
O657        C670   1.273       .  A
O657       Cd664   2.069       .  S
O658        C676   1.273       .  A
O658       Cd667   2.071       .  S
O659        C673   1.273       .  A
O659       Cd663   2.069       .  S
O660        C671   1.272       .  A
O660       Cd663   2.067       .  S
Zn661       O672   2.025       .  S
Zn661       O674   2.022       .  S
Zn661       O666   1.951       .  S
O662        C673   1.273       .  A
O662       Cd667   2.071       .  S
Cd663       O665   2.070       .  S
Cd663       O666   2.003       .  S
Cd664       O668   2.072       .  S
Cd664       O677   2.074       .  S
Cd664       O666   2.006       .  S
O665        C675   1.273       .  A
O666       Cd667   2.002       .  S
Cd667       O669   2.068       .  S
O668        C675   1.273       .  A
C670        O674   1.273       .  A
C670        C963   1.435       .  S
C671        C905   1.435       .  S
C673        C921   1.434       .  S
C675        C947   1.435       .  S
C676        O677   1.273       .  A
C676        C975   1.435       .  S
C678        C704   1.567       .  S
C678        C949   1.474       .  S
C678        C961   1.475       .  S
C678        C977   1.475       .  S
C679        C728   1.568   1_556  S
C679        C919   1.474   1_565  S
O680        C696   1.273       .  A
O680      Zn1013   2.024       .  S
C681        O697   1.273       .  A
C681        O694   1.273       .  A
C681        C877   1.436       .  S
O682        C695   1.273       .  A
O682      Cd1016   2.068   1_645  S
O683        C701   1.273       .  A
O683       Cd692   2.072       .  S
O684        C698   1.273       .  A
O685        C696   1.273       .  A
O685       Cd688   2.068       .  S
Zn686      O1007   2.025   1_545  S
Zn686       O699   2.020       .  S
Zn686      O1018   1.951   1_545  S
O687        C698   1.273       .  A
O687      Cd1019   2.069       .  S
Cd688       O690   2.071       .  S
Cd688       O691   2.003       .  S
Cd689      O1009   2.069   1_455  S
Cd689       O693   2.074   1_455  S
Cd689       O691   2.006   1_455  S
O690        C700   1.273       .  A
O691      Zn1013   1.951       .  S
Cd692      O1014   2.070   1_545  S
Cd692       O694   2.070       .  S
O693        C700   1.273       .  A
C695        O699   1.273       .  A
C695        C849   1.434       .  S
C696        C863   1.435       .  S
C698        C891   1.434       .  S
C700        C837   1.436       .  S
C701        O702   1.273       .  A
C701        C823   1.435       .  S
C703        C729   1.567       .  S
C703        C821   1.475       .  S
C703        C835   1.475       .  S
C703        C851   1.473       .  S
C704        C865   1.475       .  S
C704        C879   1.475       .  S
C704        C893   1.473       .  S
O705        C721   1.273       .  A
O705       Zn711   2.024       .  S
C706        O722   1.274       .  A
C706        O719   1.273       .  A
C706        C765   1.436       .  S
O707        C720   1.273       .  A
O707       Cd714   2.068       .  S
O708        C726   1.273       .  A
O708       Cd717   2.070       .  S
O709        C723   1.273       .  A
O709       Cd713   2.069       .  S
O710        C721   1.273       .  A
O710       Cd713   2.067       .  S
Zn711       O722   2.027       .  S
Zn711       O724   2.023       .  S
Zn711       O716   1.952       .  S
O712        C723   1.273       .  A
O712       Cd717   2.072       .  S
Cd713       O715   2.070       .  S
Cd713       O716   2.003       .  S
Cd714       O718   2.072       .  S
Cd714       O727   2.071       .  S
Cd714       O716   2.006       .  S
O715        C725   1.273       .  A
O716       Cd717   2.003       .  S
Cd717       O719   2.068       .  S
O718        C725   1.273       .  A
C720        O724   1.273       .  A
C720        C795   1.435       .  S
C721        C739   1.435       .  S
C723        C753   1.435       .  S
C725        C781   1.434       .  S
C726        O727   1.273       .  A
C726        C807   1.435       .  S
C728        C751   1.474   1_565  S
C728       C1094   1.476       .  S
C729        C779   1.474       .  S
C729        C793   1.474       .  S
C729        C809   1.474       .  S
C730        C738   1.440       .  S
C730        C731   1.401       .  A
C730        C735   1.402       .  A
C731        C732   1.398       .  A
C731        H740   1.083       .  S
C732        C733   1.401       .  A
C732        H741   1.084       .  S
C733        C736   1.438       .  S
C733        C734   1.401       .  A
C734        C735   1.400       .  A
C734        H742   1.084       .  S
C735        H743   1.083       .  S
C736        C737   1.206       .  T
C738        C739   1.206       .  T
C744        C752   1.439       .  S
C744        C745   1.402       .  A
C744        C749   1.401       .  A
C745        C746   1.400       .  A
C745        H754   1.083       .  S
C746        C747   1.401       .  A
C746        H755   1.084       .  S
C747        C750   1.438       .  S
C747        C748   1.401       .  A
C748        C749   1.398       .  A
C748        H756   1.084       .  S
C749        H757   1.084       .  S
C750        C751   1.206       .  T
C752        C753   1.206       .  T
C758        C766   1.440       .  S
C758        C759   1.401       .  A
C758        C763   1.401       .  A
C759        C760   1.399       .  A
C759        H768   1.084       .  S
C760        C761   1.402       .  A
C760        H769   1.083       .  S
C761        C764   1.441       .  S
C761        C762   1.401       .  A
C762        C763   1.399       .  A
C762        H770   1.083       .  S
C763        H771   1.084       .  S
C764        C765   1.207       .  T
C766        C767   1.207       .  T
C767       C1055   1.476       .  S
C772        C780   1.439       .  S
C772        C773   1.401       .  A
C772        C777   1.401       .  A
C773        C774   1.398       .  A
C773        H782   1.084       .  S
C774        C775   1.401       .  A
C774        H783   1.084       .  S
C775        C778   1.437       .  S
C775        C776   1.401       .  A
C776        C777   1.399       .  A
C776        H784   1.084       .  S
C777        H785   1.083       .  S
C778        C779   1.205       .  T
C780        C781   1.205       .  T
C786        C794   1.439       .  S
C786       C1114   1.401       .  A
C786        C791   1.401       .  A
C787       C1113   1.401       .  A
C787        C788   1.398       .  A
C787        H796   1.084       .  S
C788        C789   1.401       .  A
C788        H797   1.084       .  S
C789        C792   1.438       .  S
C789        C790   1.401       .  A
C790       C1118   1.400       .  A
C790        H798   1.083       .  S
C791       C1117   1.399       .  A
C791        H799   1.083       .  S
C792        C793   1.206       .  T
C794        C795   1.206       .  T
C800        C808   1.438       .  S
C800        C801   1.401       .  A
C800        C805   1.401       .  A
C801        H810   1.083       .  S
C802        C803   1.402       .  A
C802        H811   1.083       .  S
C803        C806   1.439       .  S
C804        C805   1.397       .  A
C804        H812   1.084       .  S
C805        H813   1.084       .  S
C806        C807   1.206       .  T
C808        C809   1.206       .  T
C814        C822   1.440       .  S
C814        C815   1.402       .  A
C814        C819   1.401       .  A
C815        C816   1.399       .  A
C815        H824   1.083       .  S
C816        C817   1.401       .  A
C816        H825   1.084       .  S
C817        C820   1.438       .  S
C817        C818   1.401       .  A
C818        C819   1.398       .  A
C818        H826   1.084       .  S
C819        H827   1.083       .  S
C820        C821   1.206       .  T
C822        C823   1.206       .  T
C828        C836   1.440       .  S
C828        C829   1.401       .  A
C828        C833   1.402       .  A
C829        C830   1.398       .  A
C829        H838   1.084       .  S
C830        C831   1.401       .  A
C830        H839   1.084       .  S
C831        C834   1.439       .  S
C831        C832   1.402       .  A
C832        C833   1.400       .  A
C832        H840   1.083       .  S
C833        H841   1.083       .  S
C834        C835   1.206       .  T
C836        C837   1.206       .  T
C842        C850   1.437       .  S
C842        C843   1.401       .  A
C842        C847   1.401       .  A
C843        C844   1.398       .  A
C843        H852   1.084       .  S
C844        C845   1.401       .  A
C844        H853   1.083       .  S
C845        C848   1.439       .  S
C845        C846   1.401       .  A
C846        C847   1.398       .  A
C846        H854   1.083       .  S
C847        H855   1.084       .  S
C848        C849   1.205       .  T
C850        C851   1.205       .  T
C856        C864   1.439       .  S
C856        C857   1.401       .  A
C856        C861   1.401       .  A
C857        C858   1.398       .  A
C857        H866   1.084       .  S
C858        C859   1.401       .  A
C858        H867   1.083       .  S
C859        C862   1.440       .  S
C859        C860   1.402       .  A
C860        C861   1.400       .  A
C860        H868   1.083       .  S
C861        H869   1.083       .  S
C862        C863   1.206       .  T
C864        C865   1.206       .  T
C870        C878   1.439       .  S
C870        C871   1.401       .  A
C870        C875   1.401       .  A
C871        C872   1.398       .  A
C871        H880   1.084       .  S
C872        C873   1.401       .  A
C872        H881   1.083       .  S
C873        C876   1.440       .  S
C873        C874   1.402       .  A
C874        C875   1.400       .  A
C874        H882   1.083       .  S
C875        H883   1.084       .  S
C876        C877   1.206       .  T
C878        C879   1.206       .  T
C884        C892   1.437       .  S
C884        C885   1.401       .  A
C884        C889   1.401       .  A
C885        C886   1.398       .  A
C885        H894   1.084       .  S
C886        C887   1.401       .  A
C886        H895   1.083       .  S
C887        C890   1.438       .  S
C887        C888   1.401       .  A
C888        C889   1.399       .  A
C888        H896   1.083       .  S
C889        H897   1.084       .  S
C890        C891   1.205       .  T
C892        C893   1.205       .  T
C898        C906   1.438       .  S
C898        C899   1.401       .  A
C898        C903   1.401       .  A
C899        C900   1.399       .  A
C899        H908   1.084       .  S
C900        C901   1.402       .  A
C900        H909   1.083       .  S
C901        C904   1.439       .  S
C901        C902   1.401       .  A
C902        C903   1.398       .  A
C902        H910   1.083       .  S
C903        H911   1.084       .  S
C904        C905   1.206       .  T
C906        C907   1.206       .  T
C912        C920   1.438       .  S
C912        C913   1.401       .  A
C912        C917   1.402       .  A
C913        C914   1.398       .  A
C913        H922   1.083       .  S
C914        C915   1.401       .  A
C914        H923   1.084       .  S
C915        C918   1.437       .  S
C915        C916   1.401       .  A
C916        C917   1.399       .  A
C916        H924   1.083       .  S
C917        H925   1.083       .  S
C918        C919   1.205       .  T
C920        C921   1.205       .  T
C926        C934   1.440       .  S
C926        C927   1.402       .  A
C926        C931   1.401       .  A
C927        C928   1.400       .  A
C927        H936   1.083       .  S
C928        C929   1.402       .  A
C928        H937   1.084       .  S
C929        C932   1.439       .  S
C929        C930   1.401       .  A
C930        C931   1.398       .  A
C930        H938   1.084   1_545  S
C931        H939   1.084       .  S
C932        C933   1.206       .  T
C934        C935   1.206       .  T
C940        C948   1.438       .  S
C940        C941   1.401       .  A
C940        C945   1.401       .  A
C941        C942   1.398       .  A
C941        H950   1.084       .  S
C942        C943   1.401       .  A
C942        H951   1.083       .  S
C943        C946   1.439       .  S
C943        C944   1.402       .  A
C944        C945   1.399       .  A
C944        H952   1.083       .  S
C945        H953   1.084       .  S
C946        C947   1.206       .  T
C948        C949   1.206       .  T
C954        C962   1.440   1_455  S
C955        C956   1.398       .  A
C956        C957   1.401       .  A
C956        H965   1.084       .  S
C957        C960   1.439       .  S
C957        C958   1.401       .  A
C958        C959   1.400       .  A
C958        H966   1.084       .  S
C960        C961   1.206       .  T
C962        C963   1.206       .  T
C968        C976   1.439       .  S
C968        C969   1.401       .  A
C968        C973   1.401       .  A
C969        C970   1.399       .  A
C969        H978   1.084       .  S
C970       C1298   1.401       .  A
C970       H1306   1.083       .  S
C971        C974   1.440   1_565  S
C971       C1297   1.401       .  A
C971       C1299   1.401       .  A
C972       C1298   1.401       .  A
C972        C973   1.399       .  A
C972       H1307   1.083       .  S
C973        H981   1.084       .  S
C974        C975   1.206       .  T
C976        C977   1.206       .  T
H979       C1297   1.083       .  S
H980       C1299   1.083       .  S
O982        C998   1.273       .  A
O982       Zn988   2.025       .  S
C983        O999   1.273       .  A
C983        O996   1.273       .  A
C983       C1262   1.436       .  S
O984        C997   1.273       .  A
O984       Cd991   2.069       .  S
O985       C1003   1.273       .  A
O985       Cd994   2.071       .  S
O986       C1000   1.273       .  A
O986       Cd990   2.068       .  S
O987        C998   1.273       .  A
O987       Cd990   2.068       .  S
Zn988       O999   2.025       .  S
Zn988      O1001   2.022       .  S
Zn988       O993   1.951       .  S
O989       C1000   1.273       .  A
O989       Cd994   2.070       .  S
Cd990       O992   2.070       .  S
Cd990       O993   2.003       .  S
Cd991       O995   2.072       .  S
Cd991      O1004   2.073       .  S
Cd991       O993   2.006       .  S
O992       C1002   1.273       .  A
O993       Cd994   2.003       .  S
Cd994       O996   2.069       .  S
O995       C1002   1.273       .  A
C997       O1001   1.273       .  A
C997       C1290   1.435       .  S
C998       C1232   1.436       .  S
C1000      C1248   1.433       .  S
C1002      C1274   1.435       .  S
C1003      O1004   1.273       .  A
C1003      C1302   1.435       .  S
C1005      C1031   1.567       .  S
C1005      C1276   1.474       .  S
C1005      C1288   1.475       .  S
C1005      C1304   1.475       .  S
C1006      C1055   1.567   1_556  S
C1006      C1246   1.473       .  S
O1007      C1023   1.273       .  A
C1008      O1024   1.273       .  A
C1008      O1021   1.272       .  A
C1008      C1204   1.435       .  S
O1009      C1022   1.273       .  A
O1010      C1028   1.273       .  A
O1010     Cd1019   2.071       .  S
O1011      C1025   1.273       .  A
O1012      C1023   1.273       .  A
O1012     Cd1015   2.069       .  S
Zn1013     O1026   2.021       .  S
O1014      C1025   1.273       .  A
Cd1015     O1017   2.070       .  S
Cd1015     O1018   2.003       .  S
Cd1016     O1020   2.072   1_455  S
Cd1016     O1018   2.006   1_455  S
O1017      C1027   1.273       .  A
Cd1019     O1021   2.068       .  S
O1020      C1027   1.273       .  A
C1022      O1026   1.273       .  A
C1022      C1176   1.435       .  S
C1023      C1190   1.436       .  S
C1025      C1218   1.434       .  S
C1027      C1164   1.435       .  S
C1028      O1029   1.273       .  A
C1028      C1150   1.435       .  S
C1030      C1056   1.567       .  S
C1030      C1148   1.475       .  S
C1030      C1162   1.474       .  S
C1030      C1178   1.474       .  S
C1031      C1192   1.475       .  S
C1031      C1206   1.474       .  S
C1031      C1220   1.474       .  S
O1032      C1048   1.273       .  A
O1032     Zn1038   2.025       .  S
C1033      O1049   1.274       .  A
C1033      O1046   1.273       .  A
C1033      C1092   1.436       .  S
O1034      C1047   1.273       .  A
O1034     Cd1041   2.070       .  S
O1035      C1053   1.273       .  A
O1035     Cd1044   2.070       .  S
O1036      C1050   1.273       .  A
O1036     Cd1040   2.069       .  S
O1037      C1048   1.273       .  A
O1037     Cd1040   2.068       .  S
Zn1038     O1049   2.027       .  S
Zn1038     O1051   2.022       .  S
Zn1038     O1043   1.952       .  S
O1039      C1050   1.273       .  A
O1039     Cd1044   2.071       .  S
Cd1040     O1042   2.070       .  S
Cd1040     O1043   2.003       .  S
Cd1041     O1045   2.073       .  S
Cd1041     O1054   2.074       .  S
Cd1041     O1043   2.007       .  S
O1042      C1052   1.273       .  A
O1043     Cd1044   2.003       .  S
Cd1044     O1046   2.068       .  S
O1045      C1052   1.273       .  A
C1047      O1051   1.273       .  A
C1047      C1122   1.435       .  S
C1048      C1066   1.436       .  S
C1050      C1080   1.434       .  S
C1052      C1108   1.435       .  S
C1053      O1054   1.273       .  A
C1053      C1134   1.435       .  S
C1055      C1078   1.474       .  S
C1056      C1106   1.474       .  S
C1056      C1120   1.474       .  S
C1056      C1136   1.475       .  S
C1057      C1065   1.440       .  S
C1057      C1058   1.401       .  A
C1057      C1062   1.402       .  A
C1058      C1059   1.398       .  A
C1058      H1067   1.083       .  S
C1059      C1060   1.401       .  A
C1059      H1068   1.084       .  S
C1060      C1063   1.439       .  S
C1060      C1061   1.401       .  A
C1061      C1062   1.400       .  A
C1061      H1069   1.084       .  S
C1062      H1070   1.083       .  S
C1063      C1064   1.206       .  T
C1065      C1066   1.206       .  T
C1071      C1079   1.439       .  S
C1071      C1072   1.402       .  A
C1071      C1076   1.401       .  A
C1072      C1073   1.399       .  A
C1072      H1081   1.083       .  S
C1073      C1074   1.401       .  A
C1073      H1082   1.084       .  S
C1074      C1077   1.437       .  S
C1074      C1075   1.401       .  A
C1075      C1076   1.398       .  A
C1075      H1083   1.084       .  S
C1076      H1084   1.084       .  S
C1077      C1078   1.205       .  T
C1079      C1080   1.205       .  T
C1085      C1093   1.440       .  S
C1085      C1086   1.401       .  A
C1085      C1090   1.402       .  A
C1086      C1087   1.399       .  A
C1086      H1095   1.084       .  S
C1087      C1088   1.402       .  A
C1087      H1096   1.083       .  S
C1088      C1091   1.441       .  S
C1088      C1089   1.402       .  A
C1089      C1090   1.400       .  A
C1089      H1097   1.083       .  S
C1090      H1098   1.083       .  S
C1091      C1092   1.207       .  T
C1093      C1094   1.207       .  T
C1099      C1107   1.439       .  S
C1099      C1100   1.401       .  A
C1099      C1104   1.402       .  A
C1100      C1101   1.398       .  A
C1100      H1109   1.083       .  S
C1101      C1102   1.401       .  A
C1101      H1110   1.084       .  S
C1102      C1105   1.438       .  S
C1102      C1103   1.401       .  A
C1103      C1104   1.399       .  A
C1103      H1111   1.084       .  S
C1104      H1112   1.083       .  S
C1105      C1106   1.206       .  T
C1107      C1108   1.206       .  T
C1113      C1121   1.440   1_545  S
C1113      C1118   1.402       .  A
C1114      C1115   1.398       .  A
C1114      H1123   1.083       .  S
C1115      C1116   1.401       .  A
C1115      H1124   1.084       .  S
C1116      C1119   1.438       .  S
C1116      C1117   1.401       .  A
C1117      H1125   1.084       .  S
C1118      H1126   1.083   1_545  S
C1119      C1120   1.206       .  T
C1121      C1122   1.206       .  T
C1127      C1135   1.438       .  S
C1127      C1128   1.401       .  A
C1127      C1132   1.401       .  A
C1128      H1137   1.084       .  S
C1129      C1130   1.402       .  A
C1129      H1138   1.083       .  S
C1130      C1133   1.440       .  S
C1131      C1132   1.398       .  A
C1131      H1139   1.084       .  S
C1132      H1140   1.084       .  S
C1133      C1134   1.206       .  T
C1135      C1136   1.206       .  T
C1141      C1149   1.440       .  S
C1141      C1142   1.402       .  A
C1141      C1146   1.401       .  A
C1142      C1143   1.400       .  A
C1142      H1151   1.083       .  S
C1143      C1144   1.401       .  A
C1143      H1152   1.084       .  S
C1144      C1147   1.439       .  S
C1144      C1145   1.401       .  A
C1145      C1146   1.398       .  A
C1145      H1153   1.084       .  S
C1146      H1154   1.084       .  S
C1147      C1148   1.206       .  T
C1149      C1150   1.206       .  T
C1155      C1163   1.439       .  S
C1155      C1156   1.401       .  A
C1155      C1160   1.401       .  A
C1156      C1157   1.399       .  A
C1156      H1165   1.083       .  S
C1157      C1158   1.401       .  A
C1157      H1166   1.084       .  S
C1158      C1161   1.438       .  S
C1158      C1159   1.401       .  A
C1159      C1160   1.398       .  A
C1159      H1167   1.084       .  S
C1160      H1168   1.083       .  S
C1161      C1162   1.206       .  T
C1163      C1164   1.206       .  T
C1169      C1177   1.438       .  S
C1169      C1170   1.401       .  A
C1169      C1174   1.401       .  A
C1170      C1171   1.398       .  A
C1170      H1179   1.084       .  S
C1171      C1172   1.401       .  A
C1171      H1180   1.083       .  S
C1172      C1175   1.439       .  S
C1172      C1173   1.401       .  A
C1173      C1174   1.399       .  A
C1173      H1181   1.083       .  S
C1174      H1182   1.084       .  S
C1175      C1176   1.206       .  T
C1177      C1178   1.206       .  T
C1183      C1191   1.439       .  S
C1183      C1184   1.401       .  A
C1183      C1188   1.401       .  A
C1184      C1185   1.399       .  A
C1184      H1193   1.084       .  S
C1185      C1186   1.401       .  A
C1185      H1194   1.083       .  S
C1186      C1189   1.441       .  S
C1186      C1187   1.402       .  A
C1187      C1188   1.400       .  A
C1187      H1195   1.083       .  S
C1188      H1196   1.083       .  S
C1189      C1190   1.207       .  T
C1191      C1192   1.206       .  T
C1197      C1205   1.438       .  S
C1197      C1198   1.401       .  A
C1197      C1202   1.401       .  A
C1198      C1199   1.398       .  A
C1198      H1207   1.084       .  S
C1199      C1200   1.401       .  A
C1199      H1208   1.083       .  S
C1200      C1203   1.440       .  S
C1200      C1201   1.402       .  A
C1201      C1202   1.400       .  A
C1201      H1209   1.083       .  S
C1202      H1210   1.084       .  S
C1203      C1204   1.206       .  T
C1205      C1206   1.206       .  T
C1211      C1219   1.437       .  S
C1211      C1212   1.401       .  A
C1211      C1216   1.401       .  A
C1212      C1213   1.398       .  A
C1212      H1221   1.084       .  S
C1213      C1214   1.401       .  A
C1213      H1222   1.084       .  S
C1214      C1217   1.438       .  S
C1214      C1215   1.401       .  A
C1215      C1216   1.399       .  A
C1215      H1223   1.083       .  S
C1216      H1224   1.084       .  S
C1217      C1218   1.205       .  T
C1219      C1220   1.205       .  T
C1225      C1233   1.439       .  S
C1225      C1226   1.401       .  A
C1225      C1230   1.401       .  A
C1226      C1227   1.400       .  A
C1226      H1235   1.084       .  S
C1227      C1228   1.402       .  A
C1227      H1236   1.083       .  S
C1228      C1231   1.440       .  S
C1228      C1229   1.401       .  A
C1229      C1230   1.399       .  A
C1229      H1237   1.083       .  S
C1230      H1238   1.084       .  S
C1231      C1232   1.206       .  T
C1233      C1234   1.206       .  T
C1239      C1247   1.438       .  S
C1239      C1240   1.401       .  A
C1239      C1244   1.402       .  A
C1240      C1241   1.397       .  A
C1240      H1249   1.083       .  S
C1241      C1242   1.401       .  A
C1241      H1250   1.084       .  S
C1242      C1245   1.437       .  S
C1242      C1243   1.401       .  A
C1243      C1244   1.399       .  A
C1243      H1251   1.083       .  S
C1244      H1252   1.083       .  S
C1245      C1246   1.205       .  T
C1247      C1248   1.205       .  T
C1253      C1261   1.440       .  S
C1253      C1254   1.402       .  A
C1253      C1258   1.401       .  A
C1254      C1255   1.400       .  A
C1254      H1263   1.083       .  S
C1255      C1256   1.402       .  A
C1255      H1264   1.084       .  S
C1256      C1259   1.439       .  S
C1256      C1257   1.401       .  A
C1257      C1258   1.398       .  A
C1257      H1265   1.084       .  S
C1258      H1266   1.084       .  S
C1259      C1260   1.206       .  T
C1261      C1262   1.206       .  T
C1267      C1275   1.438       .  S
C1267      C1268   1.401       .  A
C1267      C1272   1.401       .  A
C1268      C1269   1.398       .  A
C1268      H1277   1.084       .  S
C1269      C1270   1.401       .  A
C1269      H1278   1.084       .  S
C1270      C1273   1.439       .  S
C1270      C1271   1.402       .  A
C1271      C1272   1.400       .  A
C1271      H1279   1.083       .  S
C1272      H1280   1.084       .  S
C1273      C1274   1.206       .  T
C1275      C1276   1.206       .  T
C1281      C1289   1.440   1_455  S
C1282      C1283   1.398       .  A
C1283      C1284   1.401       .  A
C1283      H1292   1.084       .  S
C1284      C1287   1.438       .  S
C1284      C1285   1.401       .  A
C1285      C1286   1.400       .  A
C1285      H1293   1.084       .  S
C1287      C1288   1.206       .  T
C1289      C1290   1.206       .  T
C1295      C1303   1.439       .  S
C1295      C1296   1.401       .  A
C1295      C1300   1.401       .  A
C1296      C1297   1.399       .  A
C1296      H1305   1.084       .  S
C1298      C1301   1.440       .  S
C1299      C1300   1.399       .  A
C1300      H1308   1.084       .  S
C1301      C1302   1.206       .  T
C1303      C1304   1.206       .  T
