geometry optimzed in LAMMPS
_audit_creation_date              2020-11-30 
_audit_creation_method            'lammps2cif' 
_symmetry_space_group_name_H-M    'P1' 
_symmetry_Int_Tables_number       1 
_symmetry_cell_setting            triclinic 
loop_ 
_symmetry_equiv_pos_as_xyz 
  x,y,z 
_cell_length_a                    63.46255752 
_cell_length_b                    63.52323411569961 
_cell_length_c                    63.36597165974391 
_cell_angle_alpha                 90.25859135011409 
_cell_angle_beta                  90.33065096631117 
_cell_angle_gamma                 89.52798236247837 
loop_ 
_atom_site_label 
_atom_site_type_symbol 
_atom_site_fract_x 
_atom_site_fract_y 
_atom_site_fract_z 
_atom_site_charge 
O1          O  0.68614621  0.55077209  0.80991177    -0.59300
C2          C  0.67448071  0.61449886  0.82096085     0.75700
O3          O  0.70832997  0.58242057  0.86892068    -0.58100
C4          C  0.70145482  0.53827030  0.81332803     0.75700
C5          C  0.74098239  0.59463871  0.80924408     0.78000
Cd6        Cd  0.70295135  0.58055584  0.82941722     1.37500
O7          O  0.67223315  0.59685632  0.81178485    -0.56900
O8          O  0.72299835  0.59517248  0.80052427    -0.55800
C9          C  0.69117226  0.57299751  0.87269059     0.78000
O10         O  0.74160446  0.58832079  0.82824134    -0.58100
O11         O  0.69006056  0.61621353  0.83340175    -0.56600
O12         O  0.71713785  0.54578197  0.82310956    -0.56600
O13         O  0.68059038  0.56733744  0.85676782    -0.55700
O14         O  0.80998662  0.55480046  0.69584359    -0.56900
C15         C  0.82425629  0.61836051  0.68403666     0.75700
O16         O  0.82670914  0.59094159  0.75114876    -0.58100
C17         C  0.81344555  0.54224536  0.71103159     0.75700
C18         C  0.87239367  0.57411387  0.69860010     0.78000
Cd19       Cd  0.83012348  0.58391499  0.71229743     1.37500
O20         O  0.81423097  0.60129630  0.68149163    -0.56900
O21         O  0.85578898  0.56874046  0.68899466    -0.55800
C22         C  0.80769646  0.59728759  0.74946563     0.78000
O23         O  0.86982632  0.58373885  0.71609403    -0.58100
O24         O  0.83601062  0.61955787  0.70023100    -0.56600
O25         O  0.82365910  0.54945834  0.72663752    -0.56600
O26         O  0.80041185  0.59897882  0.73090029    -0.55700
O27         O  0.59403600  0.67975643  0.81321020    -0.56900
C28         C  0.53741037  0.71101504  0.81928592     0.75700
O29         O  0.58344921  0.71455609  0.87234443    -0.58100
C30         C  0.61204668  0.68035544  0.82197351     0.75700
C31         C  0.59590811  0.74762542  0.81222471     0.78000
Cd32       Cd  0.58052254  0.71062187  0.83253721     1.37500
O33         O  0.54967952  0.69641486  0.81312660    -0.56900
O34         O  0.59477188  0.72977976  0.80339701    -0.55800
C35         C  0.57425835  0.69710416  0.87532823     0.78000
O36         O  0.59052155  0.74862565  0.83148954    -0.58100
O37         O  0.54556771  0.72552809  0.83026237    -0.56600
O38         O  0.61532947  0.69535476  0.83480370    -0.56600
O39         O  0.56862342  0.68727094  0.85894743    -0.55700
O40         O  0.60126264  0.81237276  0.68308464    -0.56900
C41         C  0.54389003  0.82097946  0.71347342     0.75700
O42         O  0.59518866  0.83106462  0.75127867    -0.58100
C43         C  0.61951366  0.82029988  0.68460919     0.75700
C44         C  0.58149619  0.87536808  0.69741405     0.78000
Cd45       Cd  0.58700133  0.83290812  0.71260576     1.37500
O46         O  0.55543623  0.81492061  0.69829256    -0.56900
O47         O  0.57722772  0.85889566  0.68709600    -0.55800
C48         C  0.59963216  0.81152121  0.75038749     0.78000
O49         O  0.58903009  0.87257982  0.71587085    -0.58100
O50         O  0.55267185  0.83183771  0.72771920    -0.56600
O51         O  0.62256761  0.83317288  0.69967051    -0.56600
O52         O  0.59954983  0.80309012  0.73226806    -0.55700
O53         O  0.81558442  0.68087135  0.60216074    -0.56900
C54         C  0.81418363  0.70889680  0.54521996     0.75700
O55         O  0.82890402  0.75078752  0.58968620    -0.58100
C56         C  0.82496673  0.68268876  0.61980274     0.75700
C57         C  0.87540123  0.70002749  0.57802522     0.78000
Cd58       Cd  0.83217571  0.71174137  0.58650326     1.37500
O59         O  0.81136488  0.69422195  0.55839842    -0.56900
O60         O  0.85951918  0.69181706  0.56933587    -0.55800
C61         C  0.81093622  0.75010491  0.59836779     0.78000
O62         O  0.87164851  0.71507652  0.59079123    -0.58100
O63         O  0.82446164  0.72469666  0.55160198    -0.56600
O64         O  0.83678428  0.69853517  0.62208139    -0.56600
O65         O  0.80419935  0.73202850  0.60298687    -0.55700
O66         O  0.67754614  0.80980496  0.60081186    -0.56900
C67         C  0.70070098  0.80902202  0.54210570     0.75700
O68         O  0.70920434  0.86865719  0.58433417    -0.58100
C69         C  0.67990942  0.81975555  0.61805046     0.75700
C70         C  0.74527372  0.81152018  0.59484687     0.78000
Cd71       Cd  0.70531698  0.82917533  0.58238946     1.37500
O72         O  0.68498026  0.81154449  0.55411762    -0.56900
O73         O  0.72776418  0.80421183  0.60066006    -0.55800
C74         C  0.69294538  0.87237957  0.57313170     0.78000
O75         O  0.74459374  0.82838526  0.58413507    -0.58100
O76         O  0.71845010  0.81422540  0.54953498    -0.56600
O77         O  0.69410089  0.83362493  0.61851640    -0.56600
O78         O  0.68357594  0.85641230  0.56597762    -0.55700
O79         O  0.61440337  0.99305956  0.52157785    -0.56900
C80         C  0.59861810  0.99611983  0.58830658     0.75700
O81         O  0.66114819  0.97193175  0.57155341    -0.58100
C82         C  0.63046358  0.99852070  0.51114368     0.75700
C83         C  0.65244354  0.03621616  0.56495722     0.78000
Cd84       Cd  0.63280454  0.99577102  0.55716363     1.37500
O85         O  0.59448249  0.99503272  0.56872357    -0.56900
O86         O  0.63330965  0.03441256  0.55950097    -0.55800
C87         C  0.65470293  0.95531503  0.56258917     0.78000
O88         O  0.66261231  0.01911027  0.56732170    -0.58100
O89         O  0.61793013  0.99679706  0.59319004    -0.56600
O90         O  0.64664164  0.00317462  0.52184035    -0.56600
O91         O  0.63814514  0.95738932  0.55155144    -0.55700
O92         O  0.51690215  0.99690401  0.61935017    -0.56900
C93         C  0.58223114  0.99649978  0.60488186     0.75700
O94         O  0.56213314  0.01920576  0.66934005    -0.58100
C95         C  0.50554422  0.99537848  0.63564681     0.75700
C96         C  0.56195151  0.95684532  0.66028243     0.78000
Cd97       Cd  0.55146099  0.99619853  0.63936226     1.37500
O98         O  0.56274765  0.99441469  0.60100772    -0.56900
O99         O  0.55321481  0.95761539  0.64227559    -0.55800
C100        C  0.55648811  0.03631729  0.66077757     0.78000
O101        O  0.56569253  0.97441744  0.66892565    -0.58100
O102        O  0.58718078  0.99880841  0.62409230    -0.56600
O103        O  0.51525790  0.99381378  0.65304565    -0.56600
O104        O  0.54887763  0.03479707  0.64233163    -0.55700
O105        O  0.80937968  0.44069207  0.69314746    -0.56900
C106        C  0.82260475  0.37695935  0.68192994     0.75700
O107        O  0.86961141  0.40934501  0.71289455    -0.58100
C108        C  0.81313884  0.45320277  0.70837443     0.75700
C109        C  0.80885853  0.39896872  0.74793912     0.78000
Cd110      Cd  0.83002888  0.41155921  0.70973009     1.37500
O111        O  0.81289678  0.39435810  0.67954209    -0.56900
O112        O  0.80106890  0.39721180  0.72959640    -0.55800
C113        C  0.87271081  0.42001679  0.69626116     0.78000
O114        O  0.82764364  0.40574597  0.74903477    -0.58100
O115        O  0.83494036  0.37561726  0.69766118    -0.56600
O116        O  0.82372192  0.44591221  0.72370286    -0.56600
O117        O  0.85639462  0.42705652  0.68714188    -0.55700
O118        O  0.67697442  0.39116799  0.81536721    -0.56900
C119        C  0.70381508  0.44931135  0.81553657     0.75700
O120        O  0.71110217  0.40583896  0.87257319    -0.58100
C121        C  0.67962289  0.37344451  0.82416124     0.75700
C122        C  0.74581599  0.39644363  0.81199111     0.78000
Cd123      Cd  0.70696645  0.40787557  0.83286868     1.37500
O124        O  0.68944513  0.43607758  0.81157594    -0.56900
O125        O  0.72770691  0.39382798  0.80399730    -0.55800
C126        C  0.69403050  0.41584390  0.87608480     0.78000
O127        O  0.74634070  0.40305100  0.83095186    -0.58100
O128        O  0.71904674  0.44299488  0.82686479    -0.56600
O129        O  0.69554055  0.37157730  0.83620641    -0.56600
O130        O  0.68412228  0.42218677  0.85995218    -0.55700
O131        O  0.58014625  0.28097548  0.87131658    -0.56900
C132        C  0.59328996  0.24638164  0.81168177     0.75700
O133        O  0.55064504  0.30044202  0.81026408    -0.58100
C134        C  0.57377887  0.29971486  0.87472658     0.75700
C135        C  0.61483980  0.31059428  0.82372868     0.78000
Cd136      Cd  0.57959240  0.28474518  0.83184191     1.37500
O137        O  0.58628367  0.24584288  0.83043289    -0.56900
O138        O  0.61587631  0.29465636  0.83563906    -0.55800
C139        C  0.53769852  0.28618187  0.81516439     0.78000
O140        O  0.59733276  0.31401904  0.81446740    -0.58100
O141        O  0.59471053  0.26438370  0.80337843    -0.56600
O142        O  0.56962036  0.31055743  0.85852935    -0.56600
O143        O  0.54451282  0.27162136  0.82698174    -0.55700
O144        O  0.81128009  0.31430884  0.60027503    -0.56900
C145        C  0.81204451  0.28526889  0.54145474     0.75700
O146        O  0.86761277  0.27985995  0.58340085    -0.58100
C147        C  0.82161311  0.31264919  0.61740007     0.75700
C148        C  0.80564663  0.24732862  0.59705621     0.78000
Cd149      Cd  0.82808731  0.28392741  0.58343196     1.37500
O150        O  0.80790901  0.30008173  0.55431724    -0.56900
O151        O  0.79798758  0.26578289  0.59691498    -0.55800
C152        C  0.87028799  0.29722124  0.57382205     0.78000
O153        O  0.82497793  0.24549364  0.59205597    -0.58100
O154        O  0.82244122  0.26971286  0.54853679    -0.56600
O155        O  0.83420176  0.29711223  0.61887730    -0.56600
O156        O  0.85374543  0.30715554  0.56869402    -0.55700
O157        O  0.59558947  0.17898683  0.68195143    -0.56900
C158        C  0.53853845  0.17933331  0.71067118     0.75700
O159        O  0.58090923  0.12156366  0.71623502    -0.58100
C160        C  0.61293059  0.16903758  0.68360266     0.75700
C161        C  0.59385942  0.18131309  0.74996895     0.78000
Cd162      Cd  0.57955807  0.16096792  0.71194744     1.37500
O163        O  0.55080818  0.18141629  0.69510943    -0.56900
O164        O  0.59665235  0.18863729  0.73167604    -0.55800
C165        C  0.57041046  0.11808949  0.69944555     0.78000
O166        O  0.58574657  0.16311876  0.75094899    -0.58100
O167        O  0.54581879  0.16967176  0.72655295    -0.56600
O168        O  0.61461938  0.15613869  0.69872801    -0.56600
O169        O  0.56409448  0.13417838  0.68955504    -0.55700
O170        O  0.67375591  0.17671128  0.60194384    -0.56900
C171        C  0.70498860  0.17605878  0.54432656     0.75700
O172        O  0.74361934  0.16498038  0.59349758    -0.58100
C173        C  0.67694369  0.16812564  0.61976386     0.75700
C174        C  0.69084314  0.11825818  0.57825711     0.78000
Cd175      Cd  0.70493586  0.16078584  0.58602853     1.37500
O176        O  0.69111968  0.18280976  0.55709567    -0.56900
O177        O  0.68030481  0.13457598  0.57356760    -0.55800
C178        C  0.74156617  0.18417615  0.59903220     0.78000
O179        O  0.70897154  0.12136287  0.58639144    -0.58100
O180        O  0.71816256  0.16266632  0.55119448    -0.56600
O181        O  0.69352486  0.15701479  0.62175712    -0.56600
O182        O  0.72290216  0.19123007  0.59996942    -0.55700
O183        O  0.99512649  0.39366196  0.56530891    -0.56900
C184        C  0.99255705  0.35834499  0.50767919     0.75700
O185        O  0.01483742  0.32804169  0.57025466    -0.58100
C186        C  0.99298562  0.38974978  0.58477514     0.75700
C187        C  0.95225584  0.33448160  0.55927673     0.78000
Cd188      Cd  0.99220239  0.35547737  0.55356811     1.37500
O189        O  0.99233438  0.37493621  0.51890817    -0.56900
O190        O  0.95343180  0.35328757  0.55282499    -0.55800
C191        C  0.03183169  0.33397757  0.56191662     0.78000
O192        O  0.96963197  0.32534938  0.56315526    -0.58100
O193        O  0.99225020  0.34108941  0.51752220    -0.56600
O194        O  0.99026919  0.37066643  0.58944647    -0.56600
O195        O  0.03040071  0.34982023  0.54994230    -0.55700
O196        O  0.99741235  0.42531690  0.59790065    -0.56900
C197        C  0.99415941  0.48277231  0.63319198     0.75700
O198        O  0.97174284  0.42293264  0.66467176    -0.58100
C199        C  0.99361112  0.40611355  0.60147101     0.75700
C200        C  0.03432216  0.42913237  0.65771039     0.78000
Cd201      Cd  0.99451871  0.43683819  0.63625410     1.37500
O202        O  0.99180662  0.47141192  0.61685288    -0.56900
O203        O  0.03300491  0.43731176  0.63957539    -0.55800
C204        C  0.95472957  0.43060003  0.65742198     0.78000
O205        O  0.01703463  0.42410565  0.66607666    -0.58100
O206        O  0.99686446  0.47305720  0.65038597    -0.56600
O207        O  0.99040364  0.40140340  0.62051429    -0.56600
O208        O  0.95625016  0.44088837  0.64043722    -0.55700
O209        O  0.17294754  0.31364535  0.60154849    -0.56900
C210        C  0.17364344  0.28328703  0.54493175     0.75700
O211        O  0.15951055  0.24307160  0.59131424    -0.58100
C212        C  0.16491535  0.31123815  0.61965809     0.75700
C213        C  0.11357519  0.29486102  0.57699261     0.78000
Cd214      Cd  0.15649354  0.28216512  0.58624151     1.37500
O215        O  0.17736808  0.29813724  0.55786946    -0.56900
O216        O  0.12959662  0.30189491  0.56778556    -0.55800
C217        C  0.17830712  0.24417378  0.59827385     0.78000
O218        O  0.11701460  0.28045658  0.59049596    -0.58100
O219        O  0.16281228  0.26809117  0.55163692    -0.56600
O220        O  0.15365011  0.29506748  0.62215278    -0.56600
O221        O  0.18561206  0.26245245  0.60097392    -0.55700
O222        O  0.31246247  0.17851268  0.60034325    -0.56900
C223        C  0.28389021  0.17599021  0.54101586     0.75700
O224        O  0.27775350  0.12177782  0.58387354    -0.58100
C225        C  0.30960760  0.17031586  0.61832595     0.75700
C226        C  0.24405157  0.18252998  0.59525735     0.78000
Cd227      Cd  0.28242478  0.16125532  0.58346572     1.37500
O228        O  0.29892268  0.18010401  0.55361896    -0.56900
O229        O  0.26193823  0.19120540  0.59585694    -0.55800
C230        C  0.29586571  0.11807372  0.57613005     0.78000
O231        O  0.24373332  0.16314586  0.59018833    -0.58100
O232        O  0.26838937  0.16622299  0.54853142    -0.56600
O233        O  0.29344917  0.15890511  0.62027262    -0.56600
O234        O  0.30680956  0.13404733  0.57203962    -0.55700
O235        O  0.39254608  0.17941236  0.67991263    -0.56900
C236        C  0.44997161  0.18004110  0.70856444     0.75700
O237        O  0.40557858  0.16337283  0.74930789    -0.58100
C238        C  0.37527120  0.16961705  0.68141638     0.75700
C239        C  0.41809112  0.11830419  0.69731381     0.78000
Cd240      Cd  0.40922733  0.16137505  0.70996391     1.37500
O241        O  0.43733480  0.18274570  0.69320777    -0.56900
O242        O  0.42574198  0.13426516  0.68845949    -0.55800
C243        C  0.39589887  0.18094585  0.74889652     0.78000
O244        O  0.40677727  0.12196610  0.71342066    -0.58100
O245        O  0.44317700  0.16973838  0.72409466    -0.56600
O246        O  0.37379522  0.15668996  0.69649328    -0.56600
O247        O  0.39108930  0.18793308  0.73082108    -0.55700
O248        O  0.38960506  0.31411142  0.81490921    -0.56900
C249        C  0.44886156  0.28542742  0.81557760     0.75700
O250        O  0.40630289  0.28051669  0.87181052    -0.58100
C251        C  0.37239719  0.31170983  0.82471839     0.75700
C252        C  0.39468880  0.24535171  0.81167347     0.78000
Cd253      Cd  0.40713753  0.28389907  0.83205786     1.37500
O254        O  0.43581894  0.30003448  0.81121153    -0.56900
O255        O  0.39251646  0.26335664  0.80343596    -0.55800
C256        C  0.41437341  0.29860162  0.87459821     0.78000
O257        O  0.40156186  0.24489761  0.83055538    -0.58100
O258        O  0.44222748  0.27055863  0.82688671    -0.56600
O259        O  0.37115682  0.29562815  0.83638549    -0.56600
O260        O  0.41965095  0.30829123  0.85814477    -0.55700
O261        O  0.17446541  0.39291138  0.68148042    -0.56900
C262        C  0.17237839  0.45178358  0.71149273     0.75700
O263        O  0.11865170  0.40734810  0.71636472    -0.58100
C264        C  0.16615025  0.37507570  0.68455275     0.75700
C265        C  0.17955739  0.39644831  0.74966070     0.78000
Cd266      Cd  0.15798550  0.40943382  0.71240002     1.37500
O267        O  0.17745027  0.43900818  0.69689234    -0.56900
O268        O  0.18780185  0.39646071  0.73151682    -0.55800
C269        C  0.11539433  0.41629240  0.69870461     0.78000
O270        O  0.16018136  0.40158783  0.75075855    -0.58100
O271        O  0.16184678  0.44445759  0.72664774    -0.56600
O272        O  0.15511134  0.37324734  0.70101917    -0.56600
O273        O  0.13152355  0.42224622  0.68888542    -0.55700
O274        O  0.29455983  0.44064503  0.81466314    -0.56900
C275        C  0.30939496  0.37783406  0.82813397     0.75700
O276        O  0.27512031  0.40940859  0.87478079    -0.58100
C277        C  0.27940817  0.45307303  0.81897526     0.75700
C278        C  0.24304377  0.39712462  0.81308798     0.78000
Cd279      Cd  0.27977231  0.41127689  0.83535948     1.37500
O280        O  0.31096343  0.39522053  0.81850940    -0.56900
O281        O  0.26131594  0.39756644  0.80527628    -0.55800
C282        C  0.29145162  0.42040545  0.87826951     0.78000
O283        O  0.24146117  0.40231987  0.83241968    -0.58100
O284        O  0.29400504  0.37614898  0.84065074    -0.56600
O285        O  0.26485053  0.44581226  0.83034259    -0.56600
O286        O  0.30091734  0.42716115  0.86221269    -0.55700
O287        O  0.39246448  0.99338117  0.56502051    -0.56900
C288        C  0.35682281  0.99405256  0.50709275     0.75700
O289        O  0.32370510  0.97236229  0.56517316    -0.58100
C290        C  0.38872729  0.99598151  0.58450099     0.75700
C291        C  0.33318953  0.03531289  0.56091786     0.78000
Cd292      Cd  0.35381891  0.99484493  0.55352535     1.37500
O293        O  0.37328915  0.99426617  0.51850754    -0.56900
O294        O  0.35122251  0.03338565  0.55266503    -0.55800
C295        C  0.33340041  0.95501114  0.56300339     0.78000
O296        O  0.32435339  0.01828176  0.56600362    -0.58100
O297        O  0.33953928  0.99417111  0.51690625    -0.56600
O298        O  0.36953474  0.99816113  0.58931836    -0.56600
O299        O  0.35218236  0.95625137  0.55652948    -0.55700
O300        O  0.47169261  0.99740111  0.61794560    -0.56900
C301        C  0.40536403  0.99628087  0.60109420     0.75700
O302        O  0.42378400  0.97327950  0.66517685    -0.58100
C303        C  0.48226637  0.99557076  0.63491590     0.75700
C304        C  0.43006949  0.03647028  0.65721582     0.78000
Cd305      Cd  0.43629956  0.99614068  0.63604375     1.37500
O306        O  0.42483848  0.99372894  0.59736485    -0.56900
O307        O  0.43950336  0.03460179  0.63974670    -0.55800
C308        C  0.42933360  0.95602590  0.65671294     0.78000
O309        O  0.42299561  0.01958528  0.66490738    -0.58100
O310        O  0.40058382  0.99894655  0.62025367    -0.56600
O311        O  0.47175947  0.99404258  0.65170475    -0.56600
O312        O  0.43765155  0.95742378  0.63867217    -0.55700
O313        O  0.98941101  0.61869013  0.52126829    -0.56900
C314        C  0.99233532  0.60072433  0.58489879     0.75700
O315        O  0.01806400  0.66712082  0.56675717    -0.58100
C316        C  0.99609403  0.63392395  0.51039116     0.75700
C317        C  0.95713860  0.66101905  0.56349304     0.78000
Cd318      Cd  0.99555907  0.63689998  0.55631420     1.37500
O319        O  0.00021072  0.59847493  0.56669246    -0.56900
O320        O  0.95877897  0.64702913  0.54928158    -0.55800
C321        C  0.03543327  0.65729086  0.56572127     0.78000
O322        O  0.97350881  0.66416509  0.57452890    -0.58100
O323        O  0.98582368  0.61901883  0.58944244    -0.56600
O324        O  0.00268809  0.64969977  0.52059464    -0.56600
O325        O  0.03427533  0.63798166  0.56082737    -0.55700
O326        O  0.99795616  0.56497102  0.59708512    -0.56900
C327        C  0.99356824  0.50606170  0.63272540     0.75700
O328        O  0.01369693  0.56565241  0.66404968    -0.58100
C329        C  0.99127669  0.58352840  0.60057225     0.75700
C330        C  0.95219590  0.55861775  0.65639557     0.78000
Cd331      Cd  0.99159594  0.55216405  0.63448653     1.37500
O332        O  0.98884656  0.51657995  0.61636378    -0.56900
O333        O  0.95304094  0.55075372  0.63798985    -0.55800
C334        C  0.03099410  0.56246781  0.65466080     0.78000
O335        O  0.96969016  0.56352132  0.66469443    -0.58100
O336        O  0.99751363  0.51664804  0.64917301    -0.56600
O337        O  0.98403200  0.58697659  0.61879869    -0.56600
O338        O  0.02969616  0.55519129  0.63609511    -0.55700
O339        O  0.43533637  0.69375333  0.81532899    -0.56900
C340        C  0.37125588  0.68054414  0.82460112     0.75700
O341        O  0.40377599  0.71370867  0.87407396    -0.58100
C342        C  0.44763485  0.70792268  0.82214734     0.75700
C343        C  0.39224794  0.74539507  0.81086280     0.78000
Cd344      Cd  0.40457174  0.70865285  0.83447206     1.37500
O345        O  0.38954438  0.67801957  0.81694773    -0.56900
O346        O  0.39429125  0.72720172  0.80290217    -0.55800
C347        C  0.41002701  0.69491602  0.87745944     0.78000
O348        O  0.39486857  0.74686157  0.83074126    -0.58100
O349        O  0.36831118  0.69671233  0.83607982    -0.56600
O350        O  0.43973599  0.72182382  0.83414730    -0.56600
O351        O  0.41372186  0.68375073  0.86132960    -0.55700
O352        O  0.39572786  0.81420023  0.68137234    -0.56900
C353        C  0.45382791  0.82030731  0.71326649     0.75700
O354        O  0.40826718  0.87227360  0.71542394    -0.58100
C355        C  0.37754963  0.82246448  0.68337243     0.75700
C356        C  0.39656934  0.80987150  0.74858590     0.78000
Cd357      Cd  0.41056973  0.83264221  0.71215736     1.37500
O358        O  0.44182849  0.81344220  0.69874385    -0.56900
O359        O  0.39846652  0.80203216  0.73030408    -0.55800
C360        C  0.41616772  0.87512996  0.69722688     0.78000
O361        O  0.40052281  0.82941164  0.75046155    -0.58100
O362        O  0.44540628  0.83196621  0.72716393    -0.56600
O363        O  0.37486833  0.83462471  0.69908296    -0.56600
O364        O  0.42113020  0.85869030  0.68704682    -0.55700
O365        O  0.29917611  0.81025086  0.55413954    -0.56900
C366        C  0.31285108  0.82084366  0.61916911     0.75700
O367        O  0.27957763  0.86909061  0.58612475    -0.58100
C368        C  0.28368236  0.81463076  0.54214279     0.75700
C369        C  0.24755828  0.80852356  0.60014130     0.78000
Cd370      Cd  0.28438553  0.82952825  0.58508857     1.37500
O371        O  0.31522580  0.81171214  0.60144430    -0.56900
O372        O  0.26569814  0.80015723  0.59915910    -0.55800
C373        C  0.29785100  0.87238622  0.57872285     0.78000
O374        O  0.24620053  0.82784115  0.59505740    -0.58100
O375        O  0.29695493  0.83289225  0.62091542    -0.56600
O376        O  0.26869735  0.82495666  0.55038716    -0.56600
O377        O  0.30857148  0.85619337  0.57413695    -0.55700
O378        O  0.30950849  0.59933747  0.81446900    -0.56900
C379        C  0.27749823  0.54211594  0.81503709     0.75700
O380        O  0.27355709  0.58738014  0.87011276    -0.58100
C381        C  0.30655352  0.61762708  0.82210844     0.75700
C382        C  0.24035536  0.59768115  0.80868207     0.78000
Cd383      Cd  0.27780710  0.58439460  0.83051387     1.37500
O384        O  0.29265896  0.55409068  0.81029060    -0.56900
O385        O  0.25844951  0.59699922  0.80040804    -0.55800
C386        C  0.29052973  0.57721597  0.87379398     0.78000
O387        O  0.23933450  0.59316275  0.82817826    -0.58100
O388        O  0.26289341  0.55016505  0.82599775    -0.56600
O389        O  0.28988842  0.62044941  0.83268163    -0.56600
O390        O  0.30014658  0.57020643  0.85781120    -0.55700
O391        O  0.17782241  0.68083706  0.60271586    -0.56900
C392        C  0.17034589  0.71041518  0.54372617     0.75700
O393        O  0.11968366  0.71414184  0.58859534    -0.58100
C394        C  0.16941051  0.68335767  0.62070661     0.75700
C395        C  0.18351910  0.74646992  0.60031260     0.78000
Cd396      Cd  0.15931223  0.71081639  0.58704931     1.37500
O397        O  0.17697986  0.69595588  0.55589060    -0.56900
O398        O  0.19114664  0.72831970  0.59690845    -0.55800
C399        C  0.11709014  0.69569819  0.58101819     0.78000
O400        O  0.16365588  0.74857768  0.59800566    -0.58100
O401        O  0.15929775  0.72494097  0.55196914    -0.56600
O402        O  0.15708277  0.69901023  0.62289513    -0.56600
O403        O  0.13366904  0.68547421  0.57670494    -0.55700
O404        O  0.17514252  0.59965241  0.67977027    -0.56900
C405        C  0.16912811  0.54114206  0.70897403     0.75700
O406        O  0.15639426  0.59313347  0.74686893    -0.58100
C407        C  0.16686326  0.61777054  0.68200283     0.75700
C408        C  0.11239686  0.57790823  0.69363924     0.78000
Cd409      Cd  0.15490437  0.58378472  0.70838631     1.37500
O410        O  0.17338388  0.55280848  0.69338263    -0.56900
O411        O  0.12864497  0.57202040  0.68371883    -0.55800
C412        C  0.17614098  0.59637138  0.74610133     0.78000
O413        O  0.11554636  0.58681311  0.71138893    -0.58100
O414        O  0.15857653  0.54942491  0.72376886    -0.56600
O415        O  0.15346935  0.61990426  0.69662883    -0.56600
O416        O  0.18482369  0.59437539  0.72828583    -0.55700
O417        O  0.56455580  0.39569056  0.99745511    -0.56900
C418        C  0.50696572  0.36072201  0.99650063     0.75700
O419        O  0.56547339  0.32818468  0.97468421    -0.58100
C420        C  0.58408088  0.39151663  0.99886098     0.75700
C421        C  0.55869423  0.33664324  0.03870445     0.78000
Cd422      Cd  0.55308193  0.35752040  0.99818403     1.37500
O423        O  0.51808463  0.37699081  0.99947304    -0.56900
O424        O  0.54894893  0.35396252  0.03659139    -0.55800
C425        C  0.56186831  0.33786438  0.95757848     0.78000
O426        O  0.56635486  0.32886103  0.02195332    -0.58100
O427        O  0.51699621  0.34359368  0.99411457    -0.56600
O428        O  0.58894128  0.37225914  0.00038353    -0.56600
O429        O  0.55432490  0.35627343  0.95946699    -0.55700
O430        O  0.59667701  0.42734539  0.99740668    -0.56900
C431        C  0.63211600  0.48419638  0.99702018     0.75700
O432        O  0.66466431  0.42580894  0.02098797    -0.58100
C433        C  0.60062476  0.40779105  0.99856887     0.75700
C434        C  0.65545488  0.43015813  0.95805010     0.78000
Cd435      Cd  0.63502356  0.43828170  0.99813883     1.37500
O436        O  0.61587064  0.47333424  0.00065028    -0.56900
O437        O  0.63707624  0.43793589  0.95947252    -0.55800
C438        C  0.65598179  0.43080894  0.03824306     0.78000
O439        O  0.66437987  0.42542942  0.97533638    -0.58100
O440        O  0.64901963  0.47400537  0.99401195    -0.56600
O441        O  0.61988331  0.40265049  0.99933960    -0.56600
O442        O  0.63804674  0.43952396  0.03673247    -0.55700
O443        O  0.59583244  0.31270426  0.18061162    -0.56900
C444        C  0.53411180  0.28353611  0.17665884     0.75700
O445        O  0.57716055  0.27913718  0.12414163    -0.58100
C446        C  0.61321426  0.30905328  0.17131792     0.75700
C447        C  0.59019799  0.24653228  0.18545108     0.78000
Cd448      Cd  0.57710257  0.28348735  0.16333193     1.37500
O449        O  0.54612339  0.29865393  0.18180512    -0.56900
O450        O  0.58892158  0.26461040  0.19387466    -0.55800
C451        C  0.56997507  0.29761272  0.12084220     0.78000
O452        O  0.58596378  0.24528567  0.16582375    -0.58100
O453        O  0.54235910  0.26855632  0.16629799    -0.56600
O454        O  0.61377406  0.29315666  0.15917259    -0.56600
O455        O  0.56614861  0.30868920  0.13703038    -0.55700
O456        O  0.54997923  0.17821264  0.30072705    -0.56900
C457        C  0.61343740  0.17115169  0.31415245     0.75700
O458        O  0.58478357  0.12002596  0.28247454    -0.58100
C459        C  0.53772336  0.17325240  0.28566172     0.75700
C460        C  0.59282443  0.18195911  0.24772781     0.78000
Cd461      Cd  0.58071519  0.15980276  0.28538391     1.37500
O462        O  0.59486908  0.17841089  0.31635969    -0.56900
O463        O  0.59485770  0.18930952  0.26621418    -0.55800
C464        C  0.57581766  0.11686091  0.30010015     0.78000
O465        O  0.58651297  0.16304707  0.24629934    -0.58100
O466        O  0.61675771  0.15964808  0.29808411    -0.56600
O467        O  0.54573556  0.16315496  0.27040297    -0.56600
O468        O  0.56937404  0.13312378  0.30964687    -0.55700
O469        O  0.69062912  0.43641939  0.18097067    -0.56900
C470        C  0.67945159  0.37094033  0.17146866     0.75700
O471        O  0.71156154  0.40435201  0.12323069    -0.58100
C472        C  0.70526606  0.44888148  0.17588246     0.75700
C473        C  0.74616285  0.39315081  0.18220113     0.78000
Cd474      Cd  0.70706590  0.40543165  0.16258028     1.37500
O475        O  0.67797790  0.38836617  0.18127940    -0.56900
O476        O  0.72852697  0.39241153  0.19139378    -0.55800
C477        C  0.69332473  0.41215647  0.11992847     0.78000
O478        O  0.74590464  0.39867438  0.16295806    -0.58100
O479        O  0.69451062  0.36921067  0.15848897    -0.56600
O480        O  0.72060943  0.44088852  0.16596495    -0.56600
O481        O  0.68243667  0.41621355  0.13607785    -0.55700
O482        O  0.81397091  0.39081815  0.30985800    -0.56900
C483        C  0.81568631  0.44923326  0.28129016     0.75700
O484        O  0.87265782  0.40695601  0.27943453    -0.58100
C485        C  0.82484308  0.37393847  0.30924613     0.75700
C486        C  0.81288055  0.39362222  0.24243963     0.78000
Cd487      Cd  0.83295759  0.40764810  0.28088878     1.37500
O488        O  0.81161877  0.43654619  0.29610995    -0.56900
O489        O  0.80598363  0.38982453  0.26070684    -0.55800
C490        C  0.87469643  0.41705348  0.29673697     0.78000
O491        O  0.83077246  0.40243357  0.24154862    -0.58100
O492        O  0.82655356  0.44209964  0.26614991    -0.56600
O493        O  0.83875898  0.37265708  0.29500338    -0.56600
O494        O  0.85779299  0.42293258  0.30544319    -0.55700
O495        O  0.67378423  0.17985235  0.39833701    -0.56900
C496        C  0.70540384  0.17738964  0.45527185     0.75700
O497        O  0.70902851  0.12308328  0.40919771    -0.58100
C498        C  0.67630579  0.17242044  0.37989272     0.75700
C499        C  0.74352991  0.18432098  0.40069927     0.78000
Cd500      Cd  0.70566600  0.16269741  0.41286532     1.37500
O501        O  0.69059517  0.18259363  0.44276439    -0.56900
O502        O  0.72523347  0.19233074  0.39953658    -0.55800
C503        C  0.69217079  0.11981977  0.41942886     0.78000
O504        O  0.74462271  0.16515474  0.40634779    -0.58100
O505        O  0.72019772  0.16628152  0.44770313    -0.56600
O506        O  0.69281170  0.16147317  0.37682596    -0.56600
O507        O  0.68306222  0.13595899  0.42677667    -0.55700
O508        O  0.81375326  0.31476320  0.39304820    -0.56900
C509        C  0.81458085  0.28587707  0.45235020     0.75700
O510        O  0.82698690  0.24531918  0.40503689    -0.58100
C511        C  0.82315006  0.31201077  0.37559502     0.75700
C512        C  0.87395578  0.29705516  0.41832588     0.78000
Cd513      Cd  0.83081137  0.28438941  0.41043299     1.37500
O514        O  0.81043853  0.30074200  0.43961265    -0.56900
O515        O  0.85786429  0.30720153  0.42436275    -0.55800
C516        C  0.80804104  0.24698913  0.39854204     0.78000
O517        O  0.87042519  0.27982651  0.40863549    -0.58100
O518        O  0.82579150  0.27083466  0.44544708    -0.56600
O519        O  0.83521672  0.29604982  0.37430942    -0.56600
O520        O  0.80098881  0.26552473  0.39624412    -0.55700
O521        O  0.56408652  0.59711668  0.98940866    -0.56900
C522        C  0.50530646  0.63042933  0.99410577     0.75700
O523        O  0.56120232  0.66592991  0.01594893    -0.58100
C524        C  0.58278454  0.60049085  0.99556234     0.75700
C525        C  0.56056095  0.65706793  0.95624722     0.78000
Cd526      Cd  0.55125032  0.63478545  0.99482874     1.37500
O527        O  0.51686404  0.61516807  0.00007654    -0.56900
O528        O  0.54980263  0.64036265  0.95672394    -0.55800
C529        C  0.55498743  0.65887248  0.03343968     0.78000
O530        O  0.56766972  0.66343110  0.97380509    -0.58100
O531        O  0.51486128  0.64666267  0.98801349    -0.56600
O532        O  0.58660307  0.61905271  0.00156955    -0.56600
O533        O  0.54706665  0.64064684  0.03302875    -0.55700
O534        O  0.61553711  0.51855725  0.99947550    -0.56900
C535        C  0.59954262  0.58411334  0.99561650     0.75700
O536        O  0.66369798  0.56556960  0.01886499    -0.58100
C537        C  0.63195155  0.50744674  0.99641225     0.75700
C538        C  0.65501186  0.56070051  0.95563013     0.78000
Cd539      Cd  0.63432064  0.55329612  0.99567191     1.37500
O540        O  0.59629804  0.56504835  0.99069051    -0.56900
O541        O  0.63771683  0.55104482  0.95709938    -0.55800
C542        C  0.65520384  0.55996665  0.03596108     0.78000
O543        O  0.66280060  0.56741139  0.97279875    -0.58100
O544        O  0.61828365  0.58865063  0.00053449    -0.56600
O545        O  0.64872977  0.51738159  0.99287552    -0.56600
O546        O  0.63746975  0.55112403  0.03425421    -0.55700
O547        O  0.51913095  0.99254881  0.37680696    -0.56900
C548        C  0.58536204  0.99422180  0.39344683     0.75700
O549        O  0.56805376  0.97155284  0.32917196    -0.58100
C550        C  0.50831132  0.99660296  0.36040213     0.75700
C551        C  0.56360156  0.03440990  0.33798042     0.78000
Cd552      Cd  0.55467051  0.99454272  0.35836551     1.37500
O553        O  0.56581806  0.99635020  0.39698116    -0.56900
O554        O  0.55628508  0.03317354  0.35648536    -0.55800
C555        C  0.56119137  0.95445757  0.33653877     0.78000
O556        O  0.56722386  0.01703285  0.32878206    -0.58100
O557        O  0.59043436  0.99196921  0.37431666    -0.56600
O558        O  0.51869286  0.99986697  0.34378868    -0.56600
O559        O  0.55172199  0.95592781  0.35401967    -0.55700
O560        O  0.61559530  0.99395360  0.47613386    -0.56900
C561        C  0.60167628  0.99466561  0.41029561     0.75700
O562        O  0.66564872  0.02021537  0.43173922    -0.58100
C563        C  0.63112584  0.99885022  0.48780286     0.75700
C564        C  0.65992717  0.95837860  0.43733386     0.78000
Cd565      Cd  0.63577147  0.99728556  0.44188443     1.37500
O566        O  0.59761047  0.99855062  0.42948503    -0.56900
O567        O  0.64418387  0.96004969  0.44940748    -0.55800
C568        C  0.65553247  0.03739482  0.43318914     0.78000
O569        O  0.66448001  0.97468506  0.42696539    -0.58100
O570        O  0.62086687  0.99151026  0.40604184    -0.56600
O571        O  0.64793330  0.00354131  0.47836200    -0.56600
O572        O  0.63641778  0.03591560  0.43856863    -0.55700
O573        O  0.68590421  0.81360545  0.44050947    -0.56900
C574        C  0.67856382  0.82693971  0.37836979     0.75700
O575        O  0.71261483  0.87163709  0.41099812    -0.58100
C576        C  0.70096338  0.81269530  0.45372877     0.75700
C577        C  0.74501554  0.81089712  0.40131199     0.78000
Cd578      Cd  0.70668635  0.83259427  0.41370766     1.37500
O579        O  0.67650045  0.81628082  0.39510518    -0.56900
O580        O  0.72672122  0.80479954  0.39633726    -0.55800
C581        C  0.69823999  0.87645455  0.42405485     0.78000
O582        O  0.74603864  0.82840507  0.41100630    -0.58100
O583        O  0.69365108  0.83984252  0.37819450    -0.56600
O584        O  0.71847316  0.81995860  0.44787663    -0.56600
O585        O  0.68914275  0.86121286  0.43277828    -0.55700
O586        O  0.81276384  0.67584342  0.39975128    -0.56900
C587        C  0.81211976  0.70750319  0.45648952     0.75700
O588        O  0.86805062  0.71284422  0.41412633    -0.58100
C589        C  0.82194425  0.67776316  0.38213760     0.75700
C590        C  0.80733462  0.74556438  0.40077070     0.78000
Cd591      Cd  0.82858639  0.70793621  0.41488450     1.37500
O592        O  0.80817442  0.69244928  0.44390832    -0.56900
O593        O  0.79918806  0.72745431  0.39997608    -0.55800
C594        C  0.87152749  0.69558840  0.42369514     0.78000
O595        O  0.82643137  0.74641512  0.40684555    -0.58100
O596        O  0.82287785  0.72254335  0.44939700    -0.56600
O597        O  0.83279259  0.69421760  0.37968761    -0.56600
O598        O  0.85546529  0.68558753  0.42938380    -0.55700
O599        O  0.60023461  0.81382289  0.31158784    -0.56900
C600        C  0.54264001  0.81340355  0.28119909     0.75700
O601        O  0.58527213  0.87073220  0.27810654    -0.58100
C602        C  0.61758567  0.82348211  0.31017880     0.75700
C603        C  0.59711636  0.81274138  0.24155368     0.78000
Cd604      Cd  0.58386093  0.83127462  0.28080083     1.37500
O605        O  0.55549673  0.80963210  0.29614063    -0.56900
O606        O  0.59940294  0.80398415  0.25932688    -0.55800
C607        C  0.57445976  0.87373185  0.29469146     0.78000
O608        O  0.58985730  0.83144194  0.24170401    -0.58100
O609        O  0.54938232  0.82438921  0.26612113    -0.56600
O610        O  0.61960027  0.83543120  0.29436665    -0.56600
O611        O  0.56762947  0.85739000  0.30352585    -0.55700
O612        O  0.80936674  0.54972371  0.29990839    -0.56900
C613        C  0.82210954  0.61198995  0.31870513     0.75700
O614        O  0.86763606  0.58373178  0.28267168    -0.58100
C615        C  0.81389485  0.53844676  0.28393725     0.75700
C616        C  0.80427936  0.59626138  0.25210637     0.78000
Cd617      Cd  0.82850713  0.58049296  0.28715750     1.37500
O618        O  0.81326132  0.59423481  0.32051723    -0.56900
O619        O  0.79710282  0.59360955  0.27048068    -0.55800
C620        C  0.87178993  0.57235603  0.29867638     0.78000
O621        O  0.82394119  0.59291995  0.24977944    -0.58100
O622        O  0.83277191  0.61482928  0.30214065    -0.56600
O623        O  0.82449063  0.54703035  0.26949999    -0.56600
O624        O  0.85617294  0.56422155  0.30774627    -0.55700
O625        O  0.59822698  0.68298823  0.17258751    -0.56900
C626        C  0.54025479  0.71164314  0.17219105     0.75700
O627        O  0.58841933  0.75263205  0.15709573    -0.58100
C628        C  0.61546621  0.68397127  0.16263244     0.75700
C629        C  0.57131669  0.70105588  0.11287090     0.78000
Cd630      Cd  0.58185744  0.71365101  0.15530855     1.37500
O631        O  0.55353982  0.69707834  0.17587725    -0.56900
O632        O  0.56519401  0.69188814  0.12932638    -0.55800
C633        C  0.59520641  0.75174161  0.17598242     0.78000
O634        O  0.58253693  0.71734973  0.11568718    -0.58100
O635        O  0.54678365  0.72732725  0.16194116    -0.56600
O636        O  0.61734464  0.69928289  0.15002779    -0.56600
O637        O  0.59681570  0.73359258  0.18399435    -0.55700
O638        O  0.67580651  0.60091816  0.17594355    -0.56900
C639        C  0.70555098  0.53906188  0.17466696     0.75700
O640        O  0.71229208  0.58029549  0.12181765    -0.58100
C641        C  0.67872334  0.61763545  0.16539546     0.75700
C642        C  0.74171526  0.59604595  0.18645727     0.78000
Cd643      Cd  0.70649179  0.58214087  0.16113127     1.37500
O644        O  0.69051508  0.55153536  0.17935758    -0.56900
O645        O  0.72291478  0.59509216  0.19296772    -0.55800
C646        C  0.69343119  0.57440864  0.11825806     0.78000
O647        O  0.74457275  0.59155436  0.16706477    -0.58100
O648        O  0.72078614  0.54685619  0.16463854    -0.56600
O649        O  0.69503850  0.61801276  0.15393810    -0.56600
O650        O  0.68193109  0.57196969  0.13426835    -0.55700
O651        O  0.38918209  0.56624544  0.99307701    -0.56900
C652        C  0.35493198  0.51075091  0.99747171     0.75700
O653        O  0.32437714  0.57475849  0.01958028    -0.58100
C654        C  0.38670238  0.58522468  0.99877572     0.75700
C655        C  0.32979040  0.56431649  0.95611087     0.78000
Cd656      Cd  0.35071976  0.55652185  0.99667400     1.37500
O657        O  0.37076255  0.52227873  0.00115083    -0.56900
O658        O  0.34871994  0.55813303  0.95776587    -0.55800
C659        C  0.32774414  0.56344220  0.03566203     0.78000
O660        O  0.32029144  0.56733847  0.97337001    -0.58100
O661        O  0.33782465  0.52025203  0.99332210    -0.56600
O662        O  0.36820977  0.59054532  0.00394841    -0.56600
O663        O  0.34181758  0.54935492  0.03369278    -0.55700
O664        O  0.47128530  0.61461111  0.00077753    -0.56900
C665        C  0.40393733  0.60077124  0.99883142     0.75700
O666        O  0.42334111  0.66321409  0.01953737    -0.58100
C667        C  0.48197970  0.63021504  0.99468233     0.75700
C668        C  0.42515486  0.65500924  0.95840815     0.78000
Cd669      Cd  0.43591780  0.63376001  0.99729132     1.37500
O670        O  0.42289703  0.59614738  0.99441505    -0.56900
O671        O  0.42984111  0.63560267  0.95924609    -0.55800
C672        C  0.43029249  0.65577788  0.03671205     0.78000
O673        O  0.42535164  0.66485318  0.97581588    -0.58100
O674        O  0.40019030  0.61991178  0.00287689    -0.56600
O675        O  0.47154612  0.64640083  0.98947529    -0.56600
O676        O  0.43986757  0.63824526  0.03550033    -0.55700
O677        O  0.99756562  0.56768428  0.39644465    -0.56900
C678        C  0.99667202  0.50982396  0.36121630     0.75700
O679        O  0.97082809  0.56991101  0.33023181    -0.58100
C680        C  0.99442071  0.58705809  0.39276840     0.75700
C681        C  0.03447826  0.56377579  0.33656431     0.78000
Cd682      Cd  0.99504833  0.55597874  0.35811850     1.37500
O683        O  0.99356129  0.52106814  0.37752100    -0.56900
O684        O  0.03345097  0.55757752  0.35548970    -0.55800
C685        C  0.95438888  0.56148117  0.33748180     0.78000
O686        O  0.01701550  0.56713993  0.32737490    -0.58100
O687        O  0.99941229  0.51972962  0.34420351    -0.56600
O688        O  0.99144146  0.59183754  0.37364358    -0.56600
O689        O  0.95688394  0.55088699  0.35418236    -0.55700
O690        O  0.99710217  0.59938221  0.42890042    -0.56900
C691        C  0.99591442  0.63403868  0.48711303     0.75700
O692        O  0.01712563  0.66651294  0.42845649    -0.58100
C693        C  0.99438467  0.60346254  0.40950347     0.75700
C694        C  0.95469366  0.65898577  0.43647332     0.78000
Cd695      Cd  0.99472477  0.63734326  0.44129255     1.37500
O696        O  0.99099842  0.61819115  0.47593856    -0.56900
O697        O  0.95635910  0.64034843  0.44329359    -0.55800
C698        C  0.03448046  0.65764085  0.43309149     0.78000
O699        O  0.97177037  0.66789052  0.43170302    -0.58100
O700        O  0.00051108  0.65057626  0.47722383    -0.56600
O701        O  0.99175460  0.62267767  0.40500504    -0.56600
O702        O  0.03322364  0.63952691  0.44123311    -0.55700
O703        O  0.30881243  0.59900138  0.17718031    -0.56900
C704        C  0.27588632  0.54246396  0.17608304     0.75700
O705        O  0.23800030  0.59210496  0.16334731    -0.58100
C706        C  0.30752937  0.61668382  0.16796553     0.75700
C707        C  0.28821420  0.57557483  0.11708635     0.78000
Cd708      Cd  0.27687397  0.58452818  0.16031315     1.37500
O709        O  0.29110696  0.55440738  0.18106841    -0.56900
O710        O  0.29661771  0.56661462  0.13281173    -0.55800
C711        C  0.23964220  0.59876786  0.18222611     0.78000
O712        O  0.27342715  0.58861170  0.12107203    -0.58100
O713        O  0.26149056  0.55041982  0.16468646    -0.56600
O714        O  0.29171264  0.61949556  0.15597529    -0.56600
O715        O  0.25814907  0.60021019  0.18955780    -0.55700
O716        O  0.17720062  0.59702730  0.31665300    -0.56900
C717        C  0.17591843  0.53813753  0.28592642     0.75700
O718        O  0.12048924  0.58283263  0.28166573    -0.58100
C719        C  0.16751283  0.61443357  0.31421156     0.75700
C720        C  0.17927102  0.59469938  0.24781108     0.78000
Cd721      Cd  0.15985372  0.58030729  0.28590126     1.37500
O722        O  0.18070324  0.55049271  0.30097813    -0.56900
O723        O  0.18807101  0.59556051  0.26577239    -0.55800
C724        C  0.11705077  0.57324655  0.29885830     0.78000
O725        O  0.16050595  0.58789033  0.24730485    -0.58100
O726        O  0.16460637  0.54571040  0.27128156    -0.56600
O727        O  0.15529881  0.61579080  0.29839437    -0.56600
O728        O  0.13314592  0.56674694  0.30873639    -0.55700
O729        O  0.39085030  0.67640398  0.17741596    -0.56900
C730        C  0.45079801  0.70779421  0.17487195     0.75700
O731        O  0.40715466  0.71137722  0.12187934    -0.58100
C732        C  0.37322975  0.67924990  0.16817601     0.75700
C733        C  0.39627790  0.74410431  0.18412893     0.78000
Cd734      Cd  0.40790039  0.70691483  0.16119084     1.37500
O735        O  0.43935247  0.69224967  0.17980007    -0.56900
O736        O  0.39711676  0.72594173  0.19227527    -0.55800
C737        C  0.41652579  0.69383955  0.11873783     0.78000
O738        O  0.39944886  0.74521555  0.16435279    -0.58100
O739        O  0.44204341  0.72239651  0.16444397    -0.56600
O740        O  0.37162320  0.69536005  0.15651545    -0.56600
O741        O  0.42155927  0.68345493  0.13497633    -0.55700
O742        O  0.39494412  0.81545318  0.31439857    -0.56900
C743        C  0.45379511  0.81497818  0.28442660     0.75700
O744        O  0.40501345  0.82835433  0.24490183    -0.58100
C745        C  0.37776566  0.82565134  0.31233293     0.75700
C746        C  0.42152021  0.87519638  0.29430187     0.78000
Cd747      Cd  0.41207991  0.83205558  0.28370588     1.37500
O748        O  0.44195424  0.81268944  0.30033551    -0.56900
O749        O  0.42894274  0.85935394  0.30386999    -0.55800
C750        C  0.39940821  0.80926745  0.24664154     0.78000
O751        O  0.40986991  0.87133702  0.27836580    -0.58100
O752        O  0.44592014  0.82450048  0.26872466    -0.56600
O753        O  0.37659629  0.83812694  0.29682276    -0.56600
O754        O  0.39844275  0.80203742  0.26517675    -0.55700
O755        O  0.15997330  0.74853612  0.40277497    -0.56900
C756        C  0.11557709  0.69618770  0.41722706     0.75700
O757        O  0.17675109  0.67994493  0.39353975    -0.58100
C758        C  0.17916603  0.74757991  0.39719895     0.75700
C759        C  0.17108679  0.70870725  0.45356231     0.78000
Cd760      Cd  0.15812532  0.70973019  0.41033208     1.37500
O761        O  0.11862142  0.71423021  0.40917222    -0.56900
O762        O  0.15969309  0.72306119  0.44560124    -0.55800
C763        C  0.16603581  0.68094347  0.37656318     0.78000
O764        O  0.17768921  0.69444372  0.44109094    -0.58100
O765        O  0.13189796  0.68558223  0.42176322    -0.56600
O766        O  0.18748900  0.72942237  0.39656674    -0.56600
O767        O  0.15264982  0.69580448  0.37524529    -0.55700
O768        O  0.31399155  0.81161977  0.39250361    -0.56900
C769        C  0.28398971  0.81424437  0.45206808     0.75700
O770        O  0.27966868  0.86853715  0.40681935    -0.58100
C771        C  0.31216794  0.82196304  0.37546022     0.75700
C772        C  0.24423020  0.80884309  0.39666253     0.78000
Cd773      Cd  0.28309232  0.82904399  0.40941553     1.37500
O774        O  0.29883878  0.80922616  0.43961118    -0.56900
O775        O  0.26227601  0.80041883  0.39475143    -0.55800
C776        C  0.29638172  0.87173695  0.41751836     0.78000
O777        O  0.24386326  0.82772966  0.40336185    -0.58100
O778        O  0.26900602  0.82501100  0.44432811    -0.56600
O779        O  0.29627142  0.83408503  0.37398539    -0.56600
O780        O  0.30564563  0.85554812  0.42454806    -0.55700
O781        O  0.37260481  0.47704348  0.00143573    -0.56900
C782        C  0.39030398  0.41127468  0.99801452     0.75700
O783        O  0.32590333  0.42693833  0.01945959    -0.58100
C784        C  0.35582351  0.48750187  0.99793672     0.75700
C785        C  0.33328013  0.43398434  0.95856467     0.78000
Cd786      Cd  0.35490428  0.44153400  0.99813738     1.37500
O787        O  0.39366870  0.43062377  0.99472825    -0.56900
O788        O  0.35068658  0.44353603  0.95960926    -0.55800
C789        C  0.33200157  0.43460705  0.03687769     0.78000
O790        O  0.32624337  0.42711420  0.97581462    -0.58100
O791        O  0.37142235  0.40646937  0.00165615    -0.56600
O792        O  0.33934740  0.47689558  0.99476668    -0.56600
O793        O  0.34887246  0.44512035  0.03641790    -0.55700
O794        O  0.42630536  0.39830787  0.99470207    -0.56900
C795        C  0.48359418  0.36116628  0.99604311     0.75700
O796        O  0.42027801  0.33158279  0.01781085    -0.58100
C797        C  0.40688171  0.39469988  0.99742312     0.75700
C798        C  0.42841375  0.33855050  0.95611462     0.78000
Cd799      Cd  0.43723479  0.35942618  0.99609791     1.37500
O800        O  0.47270340  0.37768549  0.99929997    -0.56900
O801        O  0.43284235  0.35794586  0.95720075    -0.55800
C802        C  0.42795241  0.33749233  0.03529938     0.78000
O803        O  0.42790101  0.32891337  0.97350967    -0.58100
O804        O  0.47329271  0.34455706  0.99258921    -0.56600
O805        O  0.40200840  0.37559890  0.99950233    -0.56600
O806        O  0.43984641  0.35339398  0.03456093    -0.55700
O807        O  0.37415015  0.99319716  0.47303556    -0.56900
C808        C  0.39025191  0.99407734  0.40639855     0.75700
O809        O  0.32757958  0.97030735  0.42309029    -0.58100
C810        C  0.35726933  0.99369818  0.48366810     0.75700
C811        C  0.33483071  0.03277158  0.42867069     0.78000
Cd812      Cd  0.35579131  0.99309897  0.43718784     1.37500
O813        O  0.39396005  0.99599771  0.42600439    -0.56900
O814        O  0.35395233  0.03127730  0.43422548    -0.55800
C815        C  0.33592629  0.95309206  0.42884415     0.78000
O816        O  0.32504395  0.01558128  0.42675415    -0.58100
O817        O  0.37117942  0.99134514  0.40128530    -0.56600
O818        O  0.34035431  0.99388384  0.47306042    -0.56600
O819        O  0.35373594  0.95437111  0.43789911    -0.55700
O820        O  0.47362797  0.99454063  0.37625421    -0.56900
C821        C  0.40692509  0.99499052  0.39010449     0.75700
O822        O  0.42718716  0.01854450  0.32615350    -0.58100
C823        C  0.48491595  0.99709737  0.36000492     0.75700
C824        C  0.43373061  0.95672647  0.33400388     0.78000
Cd825      Cd  0.43872021  0.99640886  0.35631733     1.37500
O826        O  0.42634921  0.99676029  0.39446656    -0.56900
O827        O  0.44426065  0.95849597  0.35092419    -0.55800
C828        C  0.43105986  0.03599516  0.33499513     0.78000
O829        O  0.42499039  0.97342909  0.32738473    -0.58100
O830        O  0.40236768  0.99402720  0.37069531    -0.56600
O831        O  0.47502289  0.99979059  0.34284401    -0.56600
O832        O  0.43804449  0.03502613  0.35373400    -0.55700
O833        O  0.99451542  0.37535732  0.47371210    -0.56900
C834        C  0.99509223  0.39187987  0.40868550     0.75700
O835        O  0.02044086  0.32800321  0.42701649    -0.58100
C836        C  0.99343467  0.35857322  0.48439777     0.75700
C837        C  0.95634581  0.33522745  0.42985973     0.78000
Cd838      Cd  0.99588390  0.35667259  0.43846575     1.37500
O839        O  0.99584566  0.39533095  0.42838725    -0.56900
O840        O  0.95746406  0.35278105  0.43933210    -0.55800
C841        C  0.03729528  0.33710813  0.43245906     0.78000
O842        O  0.97369248  0.32753164  0.42354635    -0.58100
O843        O  0.99447929  0.37276767  0.40311406    -0.56600
O844        O  0.99342927  0.34154082  0.47401349    -0.56600
O845        O  0.03500405  0.35523559  0.44054774    -0.55700
O846        O  0.99381404  0.47565349  0.37790955    -0.56900
C847        C  0.99511133  0.40878267  0.39268659     0.75700
O848        O  0.97303119  0.42988228  0.32846800    -0.58100
C849        C  0.99668565  0.48646638  0.36140686     0.75700
C850        C  0.03540826  0.43007442  0.33911408     0.78000
Cd851      Cd  0.99543502  0.44019261  0.35898538     1.37500
O852        O  0.99529881  0.42825743  0.39723283    -0.56900
O853        O  0.03419368  0.43772748  0.35756933    -0.55800
C854        C  0.95552081  0.43256691  0.33756288     0.78000
O855        O  0.01801136  0.42673565  0.32986216    -0.58100
O856        O  0.99506244  0.40424782  0.37326290    -0.56600
O857        O  0.99922352  0.47610971  0.34453425    -0.56600
O858        O  0.95643713  0.43898832  0.35649304    -0.55700
O859        O  0.38658226  0.31426768  0.17842208    -0.56900
C860        C  0.44430658  0.28465121  0.17437574     0.75700
O861        O  0.39464574  0.24510366  0.16223010    -0.58100
C862        C  0.36846127  0.31274862  0.17003390     0.75700
C863        C  0.40995660  0.29865048  0.11647380     0.78000
Cd864      Cd  0.40182240  0.28418474  0.15931416     1.37500
O865        O  0.43202801  0.30003586  0.17822368    -0.56900
O866        O  0.41502457  0.30831885  0.13316210    -0.55800
C867        C  0.38996933  0.24642738  0.18171128     0.78000
O868        O  0.40050713  0.28123773  0.11908596    -0.58100
O869        O  0.43650566  0.26920801  0.16446792    -0.56600
O870        O  0.36566183  0.29737933  0.15749122    -0.56600
O871        O  0.38957085  0.26478353  0.18951846    -0.55700
O872        O  0.39055737  0.17719012  0.31278267    -0.56900
C873        C  0.44805261  0.17267702  0.28378167     0.75700
O874        O  0.40422947  0.11947346  0.27765564    -0.58100
C875        C  0.37271748  0.16846346  0.31112461     0.75700
C876        C  0.39269506  0.18198065  0.24482454     0.78000
Cd877      Cd  0.40557934  0.15910751  0.28203864     1.37500
O878        O  0.43561153  0.17712202  0.29877977    -0.56900
O879        O  0.39348919  0.18988335  0.26317479    -0.55800
C880        C  0.41436761  0.11642084  0.29479282     0.78000
O881        O  0.39691083  0.16241324  0.24333579    -0.58100
O882        O  0.44039076  0.16292438  0.26810415    -0.56600
O883        O  0.37012549  0.15599953  0.29566007    -0.56600
O884        O  0.41997904  0.13271639  0.30472151    -0.55700
O885        O  0.30739946  0.39591663  0.17723778    -0.56900
C886        C  0.27613693  0.45318942  0.17516815     0.75700
O887        O  0.27438194  0.40715267  0.11935644    -0.58100
C888        C  0.30517460  0.37779740  0.16902951     0.75700
C889        C  0.23841162  0.39773531  0.17942737     0.78000
Cd890      Cd  0.27641730  0.41120194  0.15899526     1.37500
O891        O  0.29099718  0.44062368  0.18011689    -0.56900
O892        O  0.25655247  0.39696068  0.18775821    -0.55800
C893        C  0.28996867  0.41919526  0.11626864     0.78000
O894        O  0.23743378  0.40397411  0.16040226    -0.58100
O895        O  0.26158597  0.44587669  0.16358904    -0.56600
O896        O  0.28964332  0.37545825  0.15662581    -0.56600
O897        O  0.29812296  0.42737205  0.13254027    -0.55700
O898        O  0.17957290  0.43624538  0.29964034    -0.56900
C899        C  0.16964190  0.37466513  0.31167792     0.75700
O900        O  0.11892963  0.40421901  0.28146884    -0.58100
C901        C  0.17551766  0.44908884  0.28488197     0.75700
C902        C  0.17714879  0.39444188  0.24416749     0.78000
Cd903      Cd  0.15854194  0.40765938  0.28342381     1.37500
O904        O  0.17845334  0.39248596  0.31296524    -0.56900
O905        O  0.18521558  0.39075622  0.26207778    -0.55800
C906        C  0.11599429  0.41498900  0.29816964     0.78000
O907        O  0.15902522  0.40309574  0.24412161    -0.58100
O908        O  0.15653210  0.37215771  0.29674095    -0.56600
O909        O  0.16461236  0.44224703  0.26958947    -0.56600
O910        O  0.13230812  0.42254327  0.30668459    -0.55700
O911        O  0.31318852  0.17473587  0.39496019    -0.56900
C912        C  0.28316067  0.17312679  0.45149402     0.75700
O913        O  0.24316294  0.16243020  0.40327564    -0.58100
C914        C  0.31064181  0.16745281  0.37645035     0.75700
C915        C  0.29529851  0.11444419  0.41556942     0.78000
Cd916      Cd  0.28214452  0.15748569  0.40931313     1.37500
O917        O  0.29887517  0.17555546  0.43949756    -0.56900
O918        O  0.30460724  0.13030362  0.42306307    -0.55800
C919        C  0.24549385  0.18105143  0.39637190     0.78000
O920        O  0.27832885  0.11809927  0.40537208    -0.58100
O921        O  0.26722568  0.16415561  0.44357336    -0.56600
O922        O  0.29455855  0.15612328  0.37328720    -0.56600
O923        O  0.26427074  0.18716182  0.39417323    -0.55700
O924        O  0.16640123  0.24817353  0.40394883    -0.56900
C925        C  0.12113580  0.30082507  0.42053847     0.75700
O926        O  0.18373241  0.30026217  0.44403544    -0.58100
C927        C  0.18581982  0.24904191  0.39915362     0.75700
C928        C  0.17225210  0.31431673  0.37891897     0.78000
Cd929      Cd  0.16398699  0.28659493  0.41304492     1.37500
O930        O  0.12452264  0.28393126  0.41016061    -0.56900
O931        O  0.16062342  0.29828453  0.37714038    -0.55800
C932        C  0.17828070  0.28500003  0.45564824     0.78000
O933        O  0.18087127  0.31735308  0.39681743    -0.58100
O934        O  0.13730195  0.31003670  0.42757767    -0.56600
O935        O  0.19418310  0.26705516  0.40004072    -0.56600
O936        O  0.16720796  0.27081748  0.44709832    -0.55700
C937        C  0.22780752  0.19604911  0.39239026    -0.04600
C938        C  0.23257219  0.21548477  0.38313729    -0.32000
C939        C  0.21835901  0.23234091  0.38381699     0.37200
C940        C  0.19874424  0.23012557  0.39387953    -0.05000
C941        C  0.19296098  0.21007213  0.40109462    -0.31900
C942        C  0.20735505  0.19307120  0.40044002     0.37100
H943        H  0.24795661  0.21811505  0.37634751     0.17500
O944        O  0.22439196  0.25129316  0.37561485    -0.59400
H945        H  0.17781586  0.20788617  0.40853320     0.17500
O946        O  0.20161977  0.17404375  0.40867272    -0.59500
H947        H  0.20408785  0.17532467  0.42408144     0.44500
H948        H  0.21898985  0.25127822  0.36089509     0.44500
C949        C  0.17348011  0.35803651  0.32749492    -0.04600
C950        C  0.18366471  0.36307911  0.34658711    -0.32000
C951        C  0.18439384  0.34867556  0.36323869     0.37200
C952        C  0.17475994  0.32886621  0.36095849    -0.05000
C953        C  0.16591572  0.32335044  0.34134668    -0.31900
C954        C  0.16521396  0.33768177  0.32472756     0.37100
H955        H  0.19025745  0.37858691  0.34901408     0.17500
O956        O  0.19347686  0.35464908  0.38199044    -0.59400
H957        H  0.15884971  0.30804178  0.33899970     0.17500
O958        O  0.15619436  0.33165187  0.30593935    -0.59500
H959        H  0.14074714  0.33292284  0.30814124     0.44500
H960        H  0.20841433  0.35016092  0.38090802     0.44500
C961        C  0.21974652  0.39245582  0.19226436    -0.04600
C962        C  0.22264952  0.37884510  0.20943201    -0.32000
C963        C  0.20765579  0.37758391  0.22540084     0.37200
C964        C  0.18941655  0.39039945  0.22467233    -0.05000
C965        C  0.18532534  0.40221275  0.20634491    -0.31900
C966        C  0.20037415  0.40331255  0.19016242     0.37100
H967        H  0.23723885  0.37001010  0.21114732     0.17500
O968        O  0.21180617  0.36494176  0.24244799    -0.59400
H969        H  0.17129103  0.41198740  0.20531195     0.17500
O970        O  0.19669180  0.41634259  0.17332051    -0.59500
H971        H  0.20146782  0.43045666  0.17802268     0.44500
H972        H  0.20716070  0.35069771  0.23808107     0.44500
C973        C  0.35605863  0.17178420  0.32695888    -0.04600
C974        C  0.36152798  0.17811533  0.34751733    -0.32000
C975        C  0.34660528  0.17793994  0.36369229     0.37200
C976        C  0.32588343  0.17122580  0.35939202    -0.05000
C977        C  0.32011001  0.16640502  0.33851476    -0.31900
C978        C  0.33493545  0.16681625  0.32235229     0.37100
H979        H  0.37766417  0.18215382  0.35134055     0.17500
O980        O  0.35288874  0.18284740  0.38385524    -0.59400
H981        H  0.30414596  0.16169913  0.33475485     0.17500
O982        O  0.32871124  0.16163319  0.30223938    -0.59500
H983        H  0.32649710  0.17528867  0.29498382     0.44500
H984        H  0.35153113  0.19836563  0.38489752     0.44500
C985        C  0.35161946  0.32857566  0.17369736    -0.04600
C986        C  0.33088540  0.32387886  0.16761005    -0.32000
C987        C  0.31526389  0.33949158  0.16739335     0.37200
C988        C  0.32030631  0.36039122  0.17291818    -0.05000
C989        C  0.34061460  0.36477049  0.18058043    -0.31900
C990        C  0.35619608  0.34902039  0.18114760     0.37100
H991        H  0.32687373  0.30816072  0.16232566     0.17500
O992        O  0.29530076  0.33424662  0.16097750    -0.59400
H993        H  0.34476377  0.38066466  0.18516493     0.17500
O994        O  0.37619045  0.35424435  0.18746530    -0.59500
H995        H  0.37626897  0.35251105  0.20302603     0.44500
H996        H  0.28753063  0.33134608  0.17418508     0.44500
C997        C  0.38793232  0.19573035  0.22646089    -0.04600
C998        C  0.37667625  0.21448801  0.23006022    -0.32000
C999        C  0.37588142  0.23040685  0.21490560     0.37200
C1000       C  0.38638165  0.22783813  0.19547396    -0.05000
C1001       C  0.39607133  0.20829206  0.19105377    -0.31900
C1002       C  0.39684931  0.19226065  0.20637574     0.37100
H1003       H  0.36929768  0.21733800  0.24520218     0.17500
O1004       O  0.36524340  0.24873592  0.21953468    -0.59400
H1005       H  0.40429446  0.20594339  0.17628617     0.17500
O1006       O  0.40804930  0.17417808  0.20222578    -0.59500
H1007       H  0.39739521  0.16382314  0.19750009     0.44500
H1008       H  0.37460143  0.25658697  0.22935391     0.44500
C1009       C  0.05599984  0.42563741  0.32877027    -0.04600
C1010       C  0.05666666  0.41622863  0.30859401    -0.32000
C1011       C  0.07593171  0.41267770  0.29823486     0.37200
C1012       C  0.09502237  0.41851842  0.30803211    -0.05000
C1013       C  0.09426919  0.42780821  0.32820998    -0.31900
C1014       C  0.07516478  0.43122526  0.33858184     0.37100
H1015       H  0.04219161  0.41172106  0.30070719     0.17500
O1016       O  0.07584638  0.40353470  0.27859302    -0.59400
H1017       H  0.10865485  0.43240415  0.33621730     0.17500
O1018       O  0.07550409  0.44049136  0.35817263    -0.59500
H1019       H  0.07766259  0.42872685  0.36823694     0.44500
H1020       H  0.07384654  0.41535276  0.26859203     0.44500
C1021       C  0.05854107  0.32728313  0.42960748    -0.04600
C1022       C  0.07640684  0.33760930  0.43755873    -0.32000
C1023       C  0.09668426  0.32916063  0.43484529     0.37200
C1024       C  0.09961129  0.30976951  0.42410959    -0.05000
C1025       C  0.08173739  0.29933657  0.41628597    -0.31900
C1026       C  0.06140592  0.30785869  0.41899116     0.37100
H1027       H  0.07473579  0.35247524  0.44585697     0.17500
O1028       O  0.11350496  0.34011622  0.44282302    -0.59400
H1029       H  0.08349047  0.28454197  0.40788785     0.17500
O1030       O  0.04453126  0.29725449  0.41069349    -0.59500
H1031       H  0.04028852  0.28726792  0.42184607     0.44500
H1032       H  0.11721507  0.35034301  0.43166230     0.44500
C1033       C  0.42759472  0.05638327  0.32404564    -0.04600
C1034       C  0.41709782  0.05705107  0.30439395    -0.32000
C1035       C  0.41292914  0.07631733  0.29426248     0.37200
C1036       C  0.41941228  0.09534008  0.30370787    -0.05000
C1037       C  0.43054728  0.09447255  0.32296121    -0.31900
C1038       C  0.43465690  0.07539136  0.33304916     0.37100
H1039       H  0.41177427  0.04262676  0.29698699     0.17500
O1040       O  0.40255794  0.07630270  0.27522149    -0.59400
H1041       H  0.43596563  0.10876465  0.33056271     0.17500
O1042       O  0.44535566  0.07565984  0.35192027    -0.59500
H1043       H  0.46048979  0.07480461  0.34810915     0.44500
H1044       H  0.38737844  0.07581740  0.27877555     0.44500
C1045       C  0.32458096  0.05353270  0.42488113    -0.04600
C1046       C  0.30362474  0.05481061  0.41748899    -0.32000
C1047       C  0.29366704  0.07442386  0.41434676     0.37200
C1048       C  0.30469431  0.09316354  0.41852178    -0.05000
C1049       C  0.32561924  0.09176706  0.42581556    -0.31900
C1050       C  0.33553627  0.07235473  0.42893308     0.37100
H1051       H  0.29486011  0.04058217  0.41426507     0.17500
O1052       O  0.27317915  0.07502639  0.40738661    -0.59400
H1053       H  0.33454692  0.10588037  0.42912806     0.17500
O1054       O  0.35583518  0.07208777  0.43650401    -0.59500
H1055       H  0.36488276  0.07298682  0.42381768     0.44500
H1056       H  0.26455907  0.07609677  0.42035881     0.44500
C1057       C  0.42339299  0.32666980  0.05561107    -0.04600
C1058       C  0.43302848  0.33405800  0.07414703    -0.32000
C1059       C  0.42893801  0.32493833  0.09373512     0.37200
C1060       C  0.41497159  0.30776633  0.09536886    -0.05000
C1061       C  0.40554391  0.30003443  0.07676855    -0.31900
C1062       C  0.40964064  0.30930698  0.05703955     0.37100
H1063       H  0.44381550  0.34717313  0.07357777     0.17500
O1064       O  0.43912633  0.33280995  0.11117912    -0.59400
H1065       H  0.39472853  0.28696110  0.07752885     0.17500
O1066       O  0.39975017  0.30151604  0.03939918    -0.59500
H1067       H  0.40917893  0.29015025  0.03411034     0.44500
H1068       H  0.43079804  0.34536194  0.11547609     0.44500
C1069       C  0.32011562  0.43136474  0.05669131    -0.04600
C1070       C  0.30587215  0.41458216  0.05837768    -0.32000
C1071       C  0.29529214  0.41069144  0.07739036     0.37200
C1072       C  0.29891305  0.42366368  0.09513806    -0.05000
C1073       C  0.31262146  0.44081603  0.09312224    -0.31900
C1074       C  0.32300405  0.44479573  0.07418597     0.37100
H1075       H  0.30332032  0.40410168  0.04508735     0.17500
O1076       O  0.28236847  0.39356239  0.07871499    -0.59400
H1077       H  0.31550058  0.45122066  0.10640653     0.17500
O1078       O  0.33604284  0.46186626  0.07304995    -0.59500
H1079       H  0.32681932  0.47373327  0.06864900     0.44500
H1080       H  0.26849636  0.39850986  0.07341708     0.44500
C1081       C  0.30538339  0.89298285  0.42125550    -0.04600
C1082       C  0.29911453  0.91013251  0.40870412    -0.32000
C1083       C  0.30888315  0.92980770  0.41089635     0.37200
C1084       C  0.32528426  0.93258338  0.42578268    -0.05000
C1085       C  0.33129120  0.91553916  0.43849930    -0.31900
C1086       C  0.32152463  0.89598249  0.43642475     0.37100
H1087       H  0.28695970  0.90817992  0.39679948     0.17500
O1088       O  0.30287922  0.94591619  0.39778122    -0.59400
H1089       H  0.34355038  0.91738255  0.45032449     0.17500
O1090       O  0.32763361  0.88002063  0.44969616    -0.59500
H1091       H  0.34094836  0.87436941  0.44369735     0.44500
H1092       H  0.29066418  0.95271985  0.40481461     0.44500
C1093       C  0.19216015  0.76633954  0.39274994    -0.04600
C1094       C  0.20939632  0.76397594  0.37916125    -0.32000
C1095       C  0.22564268  0.77872503  0.37900527     0.37200
C1096       C  0.22486196  0.79641181  0.39250421    -0.05000
C1097       C  0.20652652  0.79998172  0.40445792    -0.31900
C1098       C  0.19018840  0.78509960  0.40460742     0.37100
H1099       H  0.21098539  0.74989361  0.36956201     0.17500
O1100       O  0.24264286  0.77529114  0.36612107    -0.59400
H1101       H  0.20556293  0.81346350  0.41495103     0.17500
O1102       O  0.17359882  0.78798383  0.41811447    -0.59500
H1103       H  0.16242517  0.79485333  0.40951057     0.44500
H1104       H  0.25119111  0.76420457  0.37321700     0.44500
C1105       C  0.36013179  0.82354561  0.32747393    -0.04600
C1106       C  0.36049739  0.80746608  0.34267122    -0.32000
C1107       C  0.34469634  0.80617581  0.35805456     0.37200
C1108       C  0.32812457  0.82111783  0.35840504    -0.05000
C1109       C  0.32747658  0.83673057  0.34278116    -0.31900
C1110       C  0.34313216  0.83800358  0.32745052     0.37100
H1111       H  0.37321349  0.79598349  0.34282714     0.17500
O1112       O  0.34553324  0.79016206  0.37248559    -0.59400
H1113       H  0.31503064  0.84850879  0.34271785     0.17500
O1114       O  0.34208896  0.85412954  0.31314814    -0.59500
H1115       H  0.33275755  0.84895686  0.30165379     0.44500
H1116       H  0.35597574  0.79470153  0.38325824     0.44500
C1117       C  0.42592841  0.89673481  0.30243390    -0.04600
C1118       C  0.43949445  0.89876771  0.31993064    -0.32000
C1119       C  0.44230416  0.91809033  0.33009303     0.37200
C1120       C  0.43169667  0.93623440  0.32273014    -0.05000
C1121       C  0.41886200  0.93450659  0.30459089    -0.31900
C1122       C  0.41587281  0.91496392  0.29450644     0.37100
H1123       H  0.44765469  0.88512911  0.32627596     0.17500
O1124       O  0.45547605  0.91892500  0.34731408    -0.59400
H1125       H  0.41074558  0.94825237  0.29843125     0.17500
O1126       O  0.40291960  0.91389146  0.27714394    -0.59500
H1127       H  0.38857055  0.91208245  0.28283827     0.44500
H1128       H  0.44666907  0.91479755  0.35945099     0.44500
C1129       C  0.39304160  0.76287523  0.19769411    -0.04600
C1130       C  0.40366900  0.78170359  0.19338643    -0.32000
C1131       C  0.40486560  0.79780551  0.20866659     0.37200
C1132       C  0.39502879  0.79525919  0.22840257    -0.05000
C1133       C  0.38309845  0.77711283  0.23190447    -0.31900
C1134       C  0.38204138  0.76107826  0.21682540     0.37100
H1135       H  0.41236136  0.78331181  0.17882304     0.17500
O1136       O  0.41686152  0.81519287  0.20468867    -0.59400
H1137       H  0.37527337  0.77485793  0.24687242     0.17500
O1138       O  0.37108990  0.74316937  0.22145450    -0.59500
H1139       H  0.35630555  0.74631436  0.21735385     0.44500
H1140       H  0.43144232  0.81109848  0.20871705     0.44500
C1141       C  0.18186881  0.51563927  0.28566094    -0.04600
C1142       C  0.18396614  0.50453865  0.30469823    -0.32000
C1143       C  0.18395909  0.48245347  0.30473786     0.37200
C1144       C  0.18182700  0.47135879  0.28552831    -0.05000
C1145       C  0.18224190  0.48248710  0.26649204    -0.31900
C1146       C  0.18212004  0.50442863  0.26643211     0.37100
H1147       H  0.18386845  0.51291537  0.31963039     0.17500
O1148       O  0.18372983  0.47207629  0.32366279    -0.59400
H1149       H  0.18121657  0.47418811  0.25154172     0.17500
O1150       O  0.18138535  0.51478948  0.24747334    -0.59500
H1151       H  0.16667201  0.51331410  0.24231544     0.44500
H1152       H  0.19866260  0.46826035  0.32653184     0.44500
C1153       C  0.16940724  0.63223915  0.32923453    -0.04600
C1154       C  0.15651859  0.65004555  0.32616201    -0.32000
C1155       C  0.15594516  0.66635734  0.34094159     0.37200
C1156       C  0.16835071  0.66512802  0.35945285    -0.05000
C1157       C  0.18200012  0.64777547  0.36211530    -0.31900
C1158       C  0.18266878  0.63145276  0.34715066     0.37100
H1159       H  0.14627255  0.65116421  0.31246858     0.17500
O1160       O  0.14246472  0.68298308  0.33744516    -0.59400
H1161       H  0.19179101  0.64652852  0.37612103     0.17500
O1162       O  0.19575043  0.61452122  0.35063981    -0.59500
H1163       H  0.20959906  0.61871936  0.34491462     0.44500
H1164       H  0.15074533  0.69324957  0.32923571     0.44500
C1165       C  0.27530137  0.51995067  0.18179088    -0.04600
C1166       C  0.29418011  0.50887202  0.18562736    -0.32000
C1167       C  0.29456028  0.48678987  0.18545185     0.37200
C1168       C  0.27586058  0.47562245  0.18134670    -0.05000
C1169       C  0.25671238  0.48672452  0.18005045    -0.31900
C1170       C  0.25630888  0.50868246  0.18018410     0.37100
H1171       H  0.30891497  0.51725816  0.18710281     0.17500
O1172       O  0.31354678  0.47646405  0.18713939    -0.59400
H1173       H  0.24205754  0.47839257  0.17759904     0.17500
O1174       O  0.23732641  0.51897470  0.17793424    -0.59500
H1175       H  0.23342779  0.51737583  0.16282896     0.44500
H1176       H  0.31548347  0.47387489  0.20244709     0.44500
C1177       C  0.19121574  0.60038701  0.22865862    -0.04600
C1178       C  0.20910772  0.61302296  0.23103476    -0.32000
C1179       C  0.22392456  0.61452722  0.21493315     0.37200
C1180       C  0.22125513  0.60300439  0.19603907    -0.05000
C1181       C  0.20216821  0.59236281  0.19265123    -0.31900
C1182       C  0.18715650  0.59099556  0.20884101     0.37100
H1183       H  0.21228939  0.62084130  0.24594012     0.17500
O1184       O  0.24177491  0.62606685  0.21852076    -0.59400
H1185       H  0.19964168  0.58360904  0.17815802     0.17500
O1186       O  0.16945596  0.57912221  0.20564487    -0.59500
H1187       H  0.17376922  0.56448680  0.20901874     0.44500
H1188       H  0.23891002  0.63990877  0.21193098     0.44500
C1189       C  0.32382813  0.63313922  0.17037152    -0.04600
C1190       C  0.31944559  0.65366848  0.16333402    -0.32000
C1191       C  0.33512256  0.66905042  0.16317928     0.37200
C1192       C  0.35570426  0.66409293  0.17021402    -0.05000
C1193       C  0.35985579  0.64381703  0.17805611    -0.31900
C1194       C  0.34414737  0.62844298  0.17824925     0.37100
H1195       H  0.30386259  0.65777016  0.15751591     0.17500
O1196       O  0.33007316  0.68889623  0.15623042    -0.59400
H1197       H  0.37555240  0.63958980  0.18344770     0.17500
O1198       O  0.34923059  0.60856417  0.18503791    -0.59500
H1199       H  0.34813193  0.60920544  0.20062649     0.44500
H1200       H  0.33021898  0.68792953  0.14058744     0.44500
C1201       C  0.05511990  0.66780013  0.42918385    -0.04600
C1202       C  0.05599007  0.68828127  0.42079108    -0.32000
C1203       C  0.07541992  0.69796654  0.41677984     0.37200
C1204       C  0.09442631  0.68720644  0.42129779    -0.05000
C1205       C  0.09342589  0.66684070  0.42982486    -0.31900
C1206       C  0.07419015  0.65711686  0.43357447     0.37100
H1207       H  0.04157190  0.69680435  0.41717639     0.17500
O1208       O  0.07558561  0.71765558  0.40800449    -0.59400
H1209       H  0.10771556  0.65810027  0.43344649     0.17500
O1210       O  0.07435396  0.63707211  0.44153868    -0.59500
H1211       H  0.07511679  0.62767462  0.42901000     0.44500
H1212       H  0.07320338  0.72754130  0.41994927     0.44500
C1213       C  0.05514855  0.56625210  0.32599259    -0.04600
C1214       C  0.07288294  0.55665967  0.33522134    -0.32000
C1215       C  0.09282658  0.55847279  0.32631778     0.37200
C1216       C  0.09560494  0.57010834  0.30759582    -0.05000
C1217       C  0.07782917  0.57954801  0.29808640    -0.31900
C1218       C  0.05769219  0.57762840  0.30707782     0.37100
H1219       H  0.07135848  0.54758035  0.34955898     0.17500
O1220       O  0.10947911  0.54858943  0.33612931    -0.59400
H1221       H  0.07955469  0.58872623  0.28384064     0.17500
O1222       O  0.04085676  0.58766147  0.29776111    -0.59500
H1223       H  0.03730892  0.57900595  0.28516316     0.44500
H1224       H  0.11414825  0.55849080  0.34730414     0.44500
C1225       C  0.42740718  0.66671838  0.05720597    -0.04600
C1226       C  0.43764197  0.65860781  0.07508789    -0.32000
C1227       C  0.43461945  0.66761137  0.09496720     0.37200
C1228       C  0.42115722  0.68528421  0.09741949    -0.05000
C1229       C  0.41137479  0.69387155  0.07944025    -0.31900
C1230       C  0.41442481  0.68476560  0.05943957     0.37100
H1231       H  0.44795410  0.64498911  0.07377863     0.17500
O1232       O  0.44516120  0.65903664  0.11187467    -0.59400
H1233       H  0.40093576  0.70736899  0.08092811     0.17500
O1234       O  0.40402328  0.69319449  0.04239102    -0.59500
H1235       H  0.41323737  0.70462078  0.03730923     0.44500
H1236       H  0.43683129  0.64657945  0.11595310     0.44500
C1237       C  0.31604073  0.56625907  0.05575698    -0.04600
C1238       C  0.31758492  0.55055274  0.07122475    -0.32000
C1239       C  0.30781601  0.55298737  0.09084208     0.37200
C1240       C  0.29617117  0.57145671  0.09545167    -0.05000
C1241       C  0.29385513  0.58681185  0.07970927    -0.31900
C1242       C  0.30358336  0.58430872  0.05998253     0.37100
H1243       H  0.32657605  0.53628824  0.06821263     0.17500
O1244       O  0.30944584  0.53699787  0.10527590    -0.59400
H1245       H  0.28507208  0.60115360  0.08293238     0.17500
O1246       O  0.30152435  0.60004276  0.04535952    -0.59500
H1247       H  0.28864639  0.59652405  0.03716705     0.44500
H1248       H  0.32400599  0.53778473  0.11095980     0.44500
C1249       C  0.51788744  0.71025646  0.17823734    -0.04600
C1250       C  0.50593229  0.72887051  0.17955895    -0.32000
C1251       C  0.48396173  0.72822905  0.18016068     0.37200
C1252       C  0.47355980  0.70870540  0.17966272    -0.05000
C1253       C  0.48554791  0.69005507  0.18042325    -0.31900
C1254       C  0.50761129  0.69071445  0.17962594     0.37100
H1255       H  0.51357567  0.74404928  0.17893047     0.17500
O1256       O  0.47275877  0.74680707  0.18056769    -0.59400
H1257       H  0.47781483  0.67491644  0.17993896     0.17500
O1258       O  0.51873825  0.67219288  0.17791444    -0.59500
H1259       H  0.52098703  0.66742847  0.19257738     0.44500
H1260       H  0.47335669  0.75233108  0.16597439     0.44500
C1261       C  0.63232888  0.66777772  0.16490106    -0.04600
C1262       C  0.65014288  0.66878964  0.15190599    -0.32000
C1263       C  0.66556262  0.65292567  0.15223565     0.37200
C1264       C  0.66351426  0.63554485  0.16588610    -0.05000
C1265       C  0.64599327  0.63481362  0.17931226    -0.31900
C1266       C  0.63044120  0.65061357  0.17882050     0.37100
H1267       H  0.65192875  0.68168372  0.14094200     0.17500
O1268       O  0.68202764  0.65417040  0.13838227    -0.59400
H1269       H  0.64403424  0.62168005  0.18994847     0.17500
O1270       O  0.61340959  0.64895847  0.19191627    -0.59500
H1271       H  0.60348488  0.63949500  0.18441133     0.44500
H1272       H  0.69276317  0.66287346  0.14569309     0.44500
C1273       C  0.78973028  0.60142503  0.23433804    -0.04600
C1274       C  0.79570768  0.59767274  0.21328531    -0.32000
C1275       C  0.78057142  0.59756300  0.19692888     0.37200
C1276       C  0.75907016  0.60098312  0.20159217    -0.05000
C1277       C  0.75363384  0.60693455  0.22224259    -0.31900
C1278       C  0.76861712  0.60717364  0.23846289     0.37100
H1279       H  0.81188183  0.59353442  0.20965248     0.17500
O1280       O  0.78682050  0.59266315  0.17681821    -0.59400
H1281       H  0.73737935  0.61037604  0.22621526     0.17500
O1282       O  0.76221872  0.61238989  0.25848860    -0.59500
H1283       H  0.75492592  0.59972796  0.26386292     0.44500
H1284       H  0.78836156  0.60641802  0.16966492     0.44500
C1285       C  0.89341538  0.56897886  0.30729524    -0.04600
C1286       C  0.89604252  0.55569827  0.32483449    -0.32000
C1287       C  0.91566469  0.55305585  0.33463200     0.37200
C1288       C  0.93342242  0.56382141  0.32705393    -0.05000
C1289       C  0.93093888  0.57691102  0.30931560    -0.31900
C1290       C  0.91116267  0.57960954  0.29952396     0.37100
H1291       H  0.88271454  0.54739308  0.33128116     0.17500
O1292       O  0.91711150  0.54014043  0.35188015    -0.59400
H1293       H  0.94431876  0.58531992  0.30312726     0.17500
O1294       O  0.90941048  0.59277013  0.28250335    -0.59500
H1295       H  0.90665846  0.60694166  0.28858745     0.44500
H1296       H  0.91972866  0.52583529  0.34604258     0.44500
C1297       C  0.52034324  0.80709439  0.28188282    -0.04600
C1298       C  0.51021663  0.80558498  0.30146340    -0.32000
C1299       C  0.48816838  0.80610820  0.30264359     0.37200
C1300       C  0.47608989  0.80817187  0.28402685    -0.05000
C1301       C  0.48623128  0.80687172  0.26442675    -0.31900
C1302       C  0.50817979  0.80643288  0.26323859     0.37100
H1303       H  0.51933812  0.80588403  0.31596605     0.17500
O1304       O  0.47881023  0.80686316  0.32207918    -0.59400
H1305       H  0.47717809  0.80764425  0.24988904     0.17500
O1306       O  0.51759937  0.80625587  0.24378501    -0.59500
H1307       H  0.51572559  0.82072435  0.23820102     0.44500
H1308       H  0.47683246  0.79193667  0.32608686     0.44500
C1309       C  0.60132050  0.80070420  0.22190714    -0.04600
C1310       C  0.58936738  0.80458855  0.20353484    -0.32000
C1311       C  0.58857806  0.78954759  0.18716116     0.37200
C1312       C  0.60004607  0.77050735  0.18905453    -0.05000
C1313       C  0.61373018  0.76789032  0.20632079    -0.31900
C1314       C  0.61447762  0.78274359  0.22257442     0.37100
H1315       H  0.57920799  0.81835188  0.20265085     0.17500
O1316       O  0.57521682  0.79283015  0.17038309    -0.59400
H1317       H  0.62293296  0.75353489  0.20794468     0.17500
O1318       O  0.62693453  0.77866464  0.23986123    -0.59500
H1319       H  0.64050867  0.78567568  0.23691042     0.44500
H1320       H  0.56151252  0.78686122  0.17475249     0.44500
C1321       C  0.82079318  0.66136915  0.36549094    -0.04600
C1322       C  0.80827607  0.64340688  0.36825352    -0.32000
C1323       C  0.80821900  0.62713609  0.35316851     0.37200
C1324       C  0.82080248  0.62873835  0.33496877    -0.05000
C1325       C  0.83312684  0.64674934  0.33227687    -0.31900
C1326       C  0.83312795  0.66293215  0.34714134     0.37100
H1327       H  0.79867117  0.64183884  0.38222944     0.17500
O1328       O  0.79568126  0.60996003  0.35630110    -0.59400
H1329       H  0.84310400  0.64835057  0.31857050     0.17500
O1330       O  0.84585452  0.67991917  0.34375946    -0.59500
H1331       H  0.83728366  0.68971830  0.33498777     0.44500
H1332       H  0.80425185  0.60022228  0.36512257     0.44500
C1333       C  0.89296171  0.68687810  0.42779822    -0.04600
C1334       C  0.91100523  0.69914021  0.42469469    -0.32000
C1335       C  0.93128689  0.69053817  0.42775775     0.37200
C1336       C  0.93375439  0.66931304  0.43397068    -0.05000
C1337       C  0.91568603  0.65730346  0.43744142    -0.31900
C1338       C  0.89556810  0.66580148  0.43448189     0.37100
H1339       H  0.90941934  0.71539223  0.41978710     0.17500
O1340       O  0.94849288  0.70309141  0.42485110    -0.59400
H1341       H  0.91706011  0.64098155  0.44218856     0.17500
O1342       O  0.87857919  0.65293134  0.43736619    -0.59500
H1343       H  0.87555289  0.65366013  0.45271508     0.44500
H1344       H  0.95147515  0.70230863  0.40951612     0.44500
C1345       C  0.66397434  0.82469929  0.36010470    -0.04600
C1346       C  0.64679704  0.81093057  0.36131070    -0.32000
C1347       C  0.63205406  0.80952034  0.34480178     0.37200
C1348       C  0.63427564  0.82206208  0.32663238    -0.05000
C1349       C  0.65195298  0.83511201  0.32507289    -0.31900
C1350       C  0.66656864  0.83665541  0.34158540     0.37100
H1351       H  0.64448121  0.80150963  0.37530270     0.17500
O1352       O  0.61514770  0.79642458  0.34701408    -0.59400
H1353       H  0.65412868  0.84485553  0.31127858     0.17500
O1354       O  0.68316184  0.85017402  0.33947043    -0.59500
H1355       H  0.67760665  0.86416672  0.34384700     0.44500
H1356       H  0.62018449  0.78243569  0.34209350     0.44500
C1357       C  0.76365135  0.79717681  0.39705868    -0.04600
C1358       C  0.76091633  0.77928070  0.38424381    -0.32000
C1359       C  0.77594507  0.76305856  0.38392461     0.37200
C1360       C  0.79435994  0.76458441  0.39633851    -0.05000
C1361       C  0.79825219  0.78345548  0.40731759    -0.31900
C1362       C  0.78306374  0.79970735  0.40775074     0.37100
H1363       H  0.74643763  0.77717855  0.37536467     0.17500
O1364       O  0.77215190  0.74543169  0.37192972    -0.59400
H1365       H  0.81235481  0.78499206  0.41690065     0.17500
O1366       O  0.78664922  0.81706392  0.42014957    -0.59500
H1367       H  0.79349946  0.82734268  0.41070838     0.44500
H1368       H  0.76148398  0.73732832  0.37985494     0.44500
C1369       C  0.67198891  0.93831761  0.43518074    -0.04600
C1370       C  0.68445877  0.93454323  0.41724635    -0.32000
C1371       C  0.69402201  0.91479032  0.41381138     0.37200
C1372       C  0.69141001  0.89845822  0.42855607    -0.05000
C1373       C  0.67996212  0.90268926  0.44704460    -0.31900
C1374       C  0.67046978  0.92236346  0.45049322     0.37100
H1375       H  0.68605238  0.94662442  0.40536222     0.17500
O1376       O  0.70496936  0.91136038  0.39550240    -0.59400
H1377       H  0.67791512  0.89048932  0.45873698     0.17500
O1378       O  0.65933710  0.92560696  0.46872913    -0.59500
H1379       H  0.66940236  0.93239695  0.47862593     0.44500
H1380       H  0.69435433  0.90627600  0.38517354     0.44500
C1381       C  0.57028710  0.89485825  0.30412204    -0.04600
C1382       C  0.55808749  0.89618086  0.32255059    -0.32000
C1383       C  0.55481526  0.91535959  0.33299700     0.37200
C1384       C  0.56400555  0.93394355  0.32531911    -0.05000
C1385       C  0.57584581  0.93277095  0.30659622    -0.31900
C1386       C  0.57899165  0.91348658  0.29601880     0.37100
H1387       H  0.55109183  0.88218457  0.32914024     0.17500
O1388       O  0.54275713  0.91559796  0.35088970    -0.59400
H1389       H  0.58286049  0.94682899  0.30017337     0.17500
O1390       O  0.59054248  0.91310809  0.27779647    -0.59500
H1391       H  0.60539591  0.91139034  0.28244789     0.44500
H1392       H  0.52801703  0.91729285  0.34581281     0.44500
C1393       C  0.66523747  0.56370425  0.05686189    -0.04600
C1394       C  0.68717181  0.56644931  0.05863351    -0.32000
C1395       C  0.69679890  0.56985379  0.07841645     0.37200
C1396       C  0.68443461  0.57074849  0.09682135    -0.05000
C1397       C  0.66251380  0.56808369  0.09488831    -0.31900
C1398       C  0.65295571  0.56463688  0.07528747     0.37100
H1399       H  0.69693572  0.56565016  0.04468210     0.17500
O1400       O  0.71829144  0.57157475  0.07959903    -0.59400
H1401       H  0.65252641  0.56881980  0.10868680     0.17500
O1402       O  0.63148131  0.56240831  0.07437505    -0.59500
H1403       H  0.62578560  0.57690319  0.07293118     0.44500
H1404       H  0.72119741  0.58665246  0.07703018     0.44500
C1405       C  0.55741501  0.67105739  0.05330559    -0.04600
C1406       C  0.57052923  0.68882749  0.05388931    -0.32000
C1407       C  0.57477900  0.69935406  0.07295759     0.37200
C1408       C  0.56570359  0.69225907  0.09184944    -0.05000
C1409       C  0.55175789  0.67515939  0.09097455    -0.31900
C1410       C  0.54759872  0.66462261  0.07204645     0.37100
H1411       H  0.57817570  0.69414003  0.03965375     0.17500
O1412       O  0.58871506  0.71573123  0.07305794    -0.59400
H1413       H  0.54434198  0.66946636  0.10518703     0.17500
O1414       O  0.53440633  0.64762326  0.07226547    -0.59500
H1415       H  0.52000413  0.65362099  0.07082950     0.44500
H1416       H  0.58012677  0.72836972  0.06969657     0.44500
C1417       C  0.89548541  0.30557951  0.42216078    -0.04600
C1418       C  0.91306919  0.29750689  0.41127295    -0.32000
C1419       C  0.93306077  0.30678917  0.41355104     0.37200
C1420       C  0.93574609  0.32446358  0.42691674    -0.05000
C1421       C  0.91824749  0.33211466  0.43809224    -0.31900
C1422       C  0.89846664  0.32282619  0.43600699     0.37100
H1423       H  0.91125052  0.28426805  0.40060136     0.17500
O1424       O  0.94973156  0.29854792  0.40249727    -0.59400
H1425       H  0.91984907  0.34542584  0.44871626     0.17500
O1426       O  0.88209038  0.33099117  0.44756165    -0.59500
H1427       H  0.88241515  0.32315132  0.46107161     0.44500
H1428       H  0.94946667  0.30593015  0.38873851     0.44500
C1429       C  0.76226733  0.19751483  0.39648730    -0.04600
C1430       C  0.75955200  0.21570268  0.38424638    -0.32000
C1431       C  0.77517667  0.23102629  0.38332953     0.37200
C1432       C  0.79399787  0.22864141  0.39507553    -0.05000
C1433       C  0.79751976  0.20965867  0.40596264    -0.31900
C1434       C  0.78185742  0.19408676  0.40662921     0.37100
H1435       H  0.74479655  0.21854043  0.37600521     0.17500
O1436       O  0.77130414  0.24887342  0.37178601    -0.59400
H1437       H  0.81183903  0.20744853  0.41510447     0.17500
O1438       O  0.78517479  0.17655963  0.41878635    -0.59500
H1439       H  0.79148313  0.16598454  0.40910817     0.44500
H1440       H  0.77806429  0.24623771  0.35795474     0.44500
C1441       C  0.66531962  0.05817467  0.42910730    -0.04600
C1442       C  0.65368002  0.07652503  0.43343568    -0.32000
C1443       C  0.66223234  0.09645034  0.43028164     0.37200
C1444       C  0.68300994  0.09856333  0.42263747    -0.05000
C1445       C  0.69462755  0.08021662  0.41795141    -0.31900
C1446       C  0.68592683  0.06016385  0.42101919     0.37100
H1447       H  0.63774363  0.07551835  0.43937140     0.17500
O1448       O  0.64974247  0.11377014  0.43410315    -0.59400
H1449       H  0.71050111  0.08138758  0.41189965     0.17500
O1450       O  0.69773971  0.04268945  0.41603789    -0.59500
H1451       H  0.69416626  0.03947256  0.40108571     0.44500
H1452       H  0.65071868  0.11623339  0.44953574     0.44500
C1453       C  0.80861051  0.51593385  0.28276528    -0.04600
C1454       C  0.80661541  0.50449510  0.30152260    -0.32000
C1455       C  0.80723051  0.48247611  0.30122667     0.37200
C1456       C  0.80952661  0.47165932  0.28190074    -0.05000
C1457       C  0.80926011  0.48312478  0.26300204    -0.31900
C1458       C  0.80870003  0.50509633  0.26331032     0.37100
H1459       H  0.80635809  0.51257618  0.31661484     0.17500
O1460       O  0.80735472  0.47183704  0.32001440    -0.59400
H1461       H  0.81064745  0.47506399  0.24795587     0.17500
O1462       O  0.80954596  0.51576815  0.24456067    -0.59500
H1463       H  0.79476811  0.52002872  0.24147185     0.44500
H1464       H  0.82229854  0.47167970  0.32472426     0.44500
C1465       C  0.82209237  0.35694196  0.32490376    -0.04600
C1466       C  0.81028233  0.36083028  0.34322018    -0.32000
C1467       C  0.80966545  0.34603914  0.35954402     0.37200
C1468       C  0.82100470  0.32691647  0.35773703    -0.05000
C1469       C  0.83184386  0.32260019  0.33891226    -0.31900
C1470       C  0.83242276  0.33732209  0.32261650     0.37100
H1471       H  0.80214321  0.37574571  0.34531484     0.17500
O1472       O  0.79886621  0.35099599  0.37760121    -0.59400
H1473       H  0.84049344  0.30794918  0.33697994     0.17500
O1474       O  0.84380552  0.33257447  0.30485957    -0.59500
H1475       H  0.83345736  0.32658425  0.29475722     0.44500
H1476       H  0.78409571  0.34695262  0.37467220     0.44500
C1477       C  0.89549029  0.42152380  0.30680668    -0.04600
C1478       C  0.91413134  0.41323286  0.29813781    -0.32000
C1479       C  0.93373478  0.41654921  0.30797734     0.37200
C1480       C  0.93506714  0.42856990  0.32674355    -0.05000
C1481       C  0.91645356  0.43684103  0.33539913    -0.31900
C1482       C  0.89688307  0.43341349  0.32572414     0.37100
H1483       H  0.91352136  0.40386047  0.28382846     0.17500
O1484       O  0.95143649  0.40770605  0.29921300    -0.59400
H1485       H  0.91701881  0.44613197  0.34977351     0.17500
O1486       O  0.87926087  0.44203722  0.33488644    -0.59500
H1487       H  0.87479469  0.43162359  0.34555992     0.44500
H1488       H  0.95228782  0.39328245  0.30510578     0.44500
C1489       C  0.70458045  0.47179742  0.18016837    -0.04600
C1490       C  0.72366919  0.48268060  0.18193355    -0.32000
C1491       C  0.72409601  0.50467686  0.18141646     0.37200
C1492       C  0.70516299  0.51628118  0.17945983    -0.05000
C1493       C  0.68592996  0.50547573  0.17929217    -0.31900
C1494       C  0.68553860  0.48337030  0.17947845     0.37100
H1495       H  0.73846687  0.47406817  0.18269185     0.17500
O1496       O  0.74316620  0.51468014  0.18240138    -0.59400
H1497       H  0.67123714  0.51410659  0.17749405     0.17500
O1498       O  0.66666918  0.47333002  0.17674970    -0.59500
H1499       H  0.66089564  0.47178193  0.19115321     0.44500
H1500       H  0.74921305  0.51327239  0.16805677     0.44500
C1501       C  0.76587288  0.38897103  0.19412360    -0.04600
C1502       C  0.78384846  0.40118446  0.19047104    -0.32000
C1503       C  0.80056429  0.40148147  0.20515766     0.37200
C1504       C  0.79944162  0.38926668  0.22367413    -0.05000
C1505       C  0.78250706  0.37537039  0.22596702    -0.31900
C1506       C  0.76574870  0.37532352  0.21155590     0.37100
H1507       H  0.78417960  0.41185381  0.17718452     0.17500
O1508       O  0.81666284  0.41544337  0.20238854    -0.59400
H1509       H  0.78146167  0.36553022  0.23984112     0.17500
O1510       O  0.74887741  0.36245666  0.21510777    -0.59500
H1511       H  0.74061046  0.36953120  0.22640558     0.44500
H1512       H  0.82656893  0.40828676  0.19258052     0.44500
C1513       C  0.51496072  0.17781475  0.28597555    -0.04600
C1514       C  0.50418456  0.18010168  0.26673262    -0.32000
C1515       C  0.48220705  0.17987833  0.26599443     0.37200
C1516       C  0.47067078  0.17745198  0.28471448    -0.05000
C1517       C  0.48137448  0.17676864  0.30415234    -0.31900
C1518       C  0.50342975  0.17692289  0.30487898     0.37100
H1519       H  0.51284363  0.18110131  0.25208348     0.17500
O1520       O  0.47212452  0.18163603  0.24685364    -0.59400
H1521       H  0.47271398  0.17465874  0.31866981     0.17500
O1522       O  0.51347500  0.17401617  0.32387501    -0.59500
H1523       H  0.51625742  0.18840440  0.32929501     0.44500
H1524       H  0.47332762  0.16750982  0.24019622     0.44500
C1525       C  0.63014029  0.17484565  0.33010114    -0.04600
C1526       C  0.62460002  0.18130815  0.35059021    -0.32000
C1527       C  0.63961328  0.18157682  0.36689858     0.37200
C1528       C  0.66063163  0.17549770  0.36277556    -0.05000
C1529       C  0.66637730  0.17037310  0.34201371    -0.31900
C1530       C  0.65137531  0.16985652  0.32581029     0.37100
H1531       H  0.60835081  0.18508713  0.35428532     0.17500
O1532       O  0.63317726  0.18624032  0.38701805    -0.59400
H1533       H  0.68248870  0.16596322  0.33839179     0.17500
O1534       O  0.65764367  0.16413991  0.30588926    -0.59500
H1535       H  0.65906401  0.14859944  0.30621757     0.44500
H1536       H  0.63422005  0.20178696  0.38825223     0.44500
C1537       C  0.57287018  0.09557850  0.30953568    -0.04600
C1538       C  0.58032856  0.07731461  0.29929405    -0.32000
C1539       C  0.57750753  0.05725688  0.30820570     0.37200
C1540       C  0.56726044  0.05517133  0.32783518    -0.05000
C1541       C  0.55993927  0.07342666  0.33802275    -0.31900
C1542       C  0.56263051  0.09333591  0.32918740     0.37100
H1543       H  0.58833972  0.07854491  0.28430860     0.17500
O1544       O  0.58516031  0.03990369  0.29772950    -0.59400
H1545       H  0.55187448  0.07235139  0.35300079     0.17500
O1546       O  0.55476485  0.11047332  0.33988764    -0.59500
H1547       H  0.56560080  0.11389581  0.35070585     0.44500
H1548       H  0.57363972  0.03557423  0.28806160     0.44500
C1549       C  0.51130068  0.28371092  0.18113538    -0.04600
C1550       C  0.50037896  0.30298830  0.18223159    -0.32000
C1551       C  0.47830483  0.30360854  0.18160239     0.37200
C1552       C  0.46690746  0.28471634  0.17997125    -0.05000
C1553       C  0.47782572  0.26543270  0.18079785    -0.31900
C1554       C  0.49980623  0.26480765  0.18135513     0.37100
H1555       H  0.50894097  0.31766891  0.18198914     0.17500
O1556       O  0.46822396  0.32274383  0.18038493    -0.59400
H1557       H  0.46932169  0.25072342  0.17990892     0.17500
O1558       O  0.50985653  0.24560889  0.18085976    -0.59500
H1559       H  0.51363032  0.24257759  0.19575323     0.44500
H1560       H  0.46685537  0.32761737  0.19520578     0.44500
C1561       C  0.59534253  0.22798673  0.19860410    -0.04600
C1562       C  0.58597945  0.20844585  0.19436669    -0.32000
C1563       C  0.58641263  0.19236406  0.20956560     0.37200
C1564       C  0.59646626  0.19574025  0.22922498    -0.05000
C1565       C  0.60758725  0.21453886  0.23240031    -0.31900
C1566       C  0.60715054  0.23049516  0.21732726     0.37100
H1567       H  0.57696617  0.20617545  0.17997349     0.17500
O1568       O  0.57576929  0.17406378  0.20557018    -0.59400
H1569       H  0.61577251  0.21739820  0.24717946     0.17500
O1570       O  0.61732508  0.24901166  0.22166417    -0.59500
H1571       H  0.63069772  0.24815114  0.21370802     0.44500
H1572       H  0.56103137  0.17696367  0.20986439     0.44500
C1573       C  0.63159888  0.32320174  0.17371112    -0.04600
C1574       C  0.62973283  0.34146608  0.18614029    -0.32000
C1575       C  0.64561356  0.35663825  0.18643959     0.37200
C1576       C  0.66387403  0.35380663  0.17410865    -0.05000
C1577       C  0.66632377  0.33492432  0.16268538    -0.31900
C1578       C  0.65043332  0.31973511  0.16237224     0.37100
H1579       H  0.61553003  0.34445185  0.19510767     0.17500
O1580       O  0.64248904  0.37470439  0.19795373    -0.59400
H1581       H  0.68030110  0.33218628  0.15329137     0.17500
O1582       O  0.65336361  0.30181471  0.15053939    -0.59500
H1583       H  0.64926336  0.30576438  0.13591507     0.44500
H1584       H  0.64820647  0.37153943  0.21217259     0.44500
C1585       C  0.66600315  0.42642020  0.05904081    -0.04600
C1586       C  0.68537085  0.41545536  0.06022793    -0.32000
C1587       C  0.69461246  0.41051627  0.07982934     0.37200
C1588       C  0.68460309  0.41677647  0.09866458    -0.05000
C1589       C  0.66537841  0.42784102  0.09736853    -0.31900
C1590       C  0.65608105  0.43257869  0.07796056     0.37100
H1591       H  0.69328121  0.41046064  0.04593232     0.17500
O1592       O  0.71331742  0.39956027  0.08031889    -0.59400
H1593       H  0.65732000  0.43294167  0.11155049     0.17500
O1594       O  0.63734570  0.44350487  0.07779172    -0.59500
H1595       H  0.62633742  0.43272722  0.07975902     0.44500
H1596       H  0.70930941  0.38454324  0.08094154     0.44500
C1597       C  0.56093621  0.32615179  0.05959856    -0.04600
C1598       C  0.57194543  0.30689012  0.06139842    -0.32000
C1599       C  0.57440244  0.29691404  0.08103329     0.37200
C1600       C  0.56629218  0.30643559  0.09943904    -0.05000
C1601       C  0.55490551  0.32540978  0.09753057    -0.31900
C1602       C  0.55205926  0.33514066  0.07795778     0.37100
H1603       H  0.57870607  0.29949547  0.04754074     0.17500
O1604       O  0.58523367  0.27818033  0.08206259    -0.59400
H1605       H  0.54811604  0.33288698  0.11134121     0.17500
O1606       O  0.54023930  0.35329408  0.07700505    -0.59500
H1607       H  0.54998037  0.36473459  0.08124570     0.44500
H1608       H  0.57438683  0.26717717  0.08016659     0.44500
C1609       C  0.17448055  0.71017302  0.52087090    -0.04600
C1610       C  0.17784024  0.69097119  0.51025278    -0.32000
C1611       C  0.17830323  0.69020066  0.48812236     0.37200
C1612       C  0.17541575  0.70885702  0.47645489    -0.05000
C1613       C  0.17365235  0.72813289  0.48721221    -0.31900
C1614       C  0.17313076  0.72891179  0.50915092     0.37100
H1615       H  0.17886152  0.67639815  0.51903686     0.17500
O1616       O  0.17964861  0.67103080  0.47816565    -0.59400
H1617       H  0.17170622  0.74268832  0.47853099     0.17500
O1618       O  0.17029979  0.74804745  0.51889764    -0.59500
H1619       H  0.18460386  0.75248029  0.52334362     0.44500
H1620       H  0.19493797  0.66770750  0.47760380     0.44500
C1621       C  0.17272778  0.66812257  0.63794426    -0.04600
C1622       C  0.18234425  0.64859878  0.63360508    -0.32000
C1623       C  0.18199745  0.63236615  0.64843890     0.37200
C1624       C  0.17162769  0.63547474  0.66783359    -0.05000
C1625       C  0.16382794  0.65559989  0.67289154    -0.31900
C1626       C  0.16433969  0.67186201  0.65818290     0.37100
H1627       H  0.18919144  0.64548326  0.61827106     0.17500
O1628       O  0.19049238  0.61315319  0.64315425    -0.59400
H1629       H  0.15643416  0.65856716  0.68799860     0.17500
O1630       O  0.15612552  0.69117672  0.66362183    -0.59500
H1631       H  0.14063343  0.68975181  0.66210332     0.44500
H1632       H  0.20557667  0.61404220  0.64722037     0.44500
C1633       C  0.18932779  0.60151292  0.76466581    -0.04600
C1634       C  0.20795077  0.61265873  0.76115066    -0.32000
C1635       C  0.22393148  0.61315182  0.77628198     0.37200
C1636       C  0.22158578  0.60228592  0.79545702    -0.05000
C1637       C  0.20207488  0.59299258  0.79995991    -0.31900
C1638       C  0.18590482  0.59258648  0.78466247     0.37100
H1639       H  0.21072317  0.61995230  0.74599368     0.17500
O1640       O  0.24242835  0.62301345  0.77144435    -0.59400
H1641       H  0.19994967  0.58458429  0.81462048     0.17500
O1642       O  0.16791661  0.58148345  0.78857128    -0.59500
H1643       H  0.15899925  0.59106112  0.79721671     0.44500
H1644       H  0.24179153  0.63670618  0.77896391     0.44500
C1645       C  0.29961304  0.57384883  0.89525311    -0.04600
C1646       C  0.32026479  0.56580799  0.89678520    -0.32000
C1647       C  0.33013896  0.56278600  0.91629760     0.37200
C1648       C  0.31942765  0.56764467  0.93516635    -0.05000
C1649       C  0.29862736  0.57554653  0.93376072    -0.31900
C1650       C  0.28871538  0.57863265  0.91403486     0.37100
H1651       H  0.32908968  0.56195017  0.88268188     0.17500
O1652       O  0.35023755  0.55468636  0.91661586    -0.59400
H1653       H  0.28998534  0.57934930  0.94798608     0.17500
O1654       O  0.26847963  0.58634474  0.91336883    -0.59500
H1655       H  0.25936509  0.57375415  0.91393093     0.44500
H1656       H  0.35957739  0.56701878  0.91499984     0.44500
C1657       C  0.28342861  0.80935108  0.51934964    -0.04600
C1658       C  0.30249968  0.80642071  0.50849328    -0.32000
C1659       C  0.30291266  0.80620483  0.48634167     0.37200
C1660       C  0.28405479  0.80902962  0.47479728    -0.05000
C1661       C  0.26487107  0.80982325  0.48569152    -0.31900
C1662       C  0.26442903  0.81001787  0.50772380     0.37100
H1663       H  0.31727306  0.80573727  0.51712404     0.17500
O1664       O  0.32196727  0.80520844  0.47628634    -0.59400
H1665       H  0.25012465  0.81139674  0.47710634     0.17500
O1666       O  0.24533680  0.81139799  0.51772534    -0.59500
H1667       H  0.24088015  0.82634687  0.51643870     0.44500
H1668       H  0.32451761  0.79001658  0.47362977     0.44500
C1669       C  0.22918773  0.79538278  0.60564887    -0.04600
C1670       C  0.23316587  0.77556180  0.61458763    -0.32000
C1671       C  0.21782005  0.75996058  0.61438115     0.37200
C1672       C  0.19775947  0.76413231  0.60558822    -0.05000
C1673       C  0.19288932  0.78473389  0.59905031    -0.31900
C1674       C  0.20846951  0.80037337  0.59904972     0.37100
H1675       H  0.24877016  0.77154344  0.62041961     0.17500
O1676       O  0.22289282  0.74037960  0.62207246    -0.59400
H1677       H  0.17751108  0.78830442  0.59241007     0.17500
O1678       O  0.20375534  0.81973288  0.59071894    -0.59500
H1679       H  0.19866968  0.82828648  0.60281694     0.44500
H1680       H  0.23197844  0.73373270  0.61116778     0.44500
C1681       C  0.36034158  0.81903392  0.66788532    -0.04600
C1682       C  0.34058273  0.82827643  0.67178665    -0.32000
C1683       C  0.32477935  0.82832804  0.65639443     0.37200
C1684       C  0.32828350  0.81851042  0.63668012    -0.05000
C1685       C  0.34759511  0.80808493  0.63322060    -0.31900
C1686       C  0.36360161  0.80836826  0.64857911     0.37100
H1687       H  0.33756284  0.83637919  0.68655996     0.17500
O1688       O  0.30617174  0.83858264  0.66068401    -0.59400
H1689       H  0.35070032  0.80049218  0.61820224     0.17500
O1690       O  0.38273275  0.79932275  0.64396883    -0.59500
H1691       H  0.38130735  0.78429214  0.64781160     0.44500
H1692       H  0.30890651  0.85365817  0.65776128     0.44500
C1693       C  0.35430975  0.66508217  0.82106673    -0.04600
C1694       C  0.33348216  0.67054071  0.82621390    -0.32000
C1695       C  0.31751655  0.65550833  0.82561012     0.37200
C1696       C  0.32224389  0.63453573  0.81980426    -0.05000
C1697       C  0.34284075  0.62936059  0.81355717    -0.31900
C1698       C  0.35879540  0.64441872  0.81409953     0.37100
H1699       H  0.32959878  0.68642364  0.83124540     0.17500
O1700       O  0.29737741  0.66150493  0.83080303    -0.59400
H1701       H  0.34685864  0.61334880  0.80908546     0.17500
O1702       O  0.37895827  0.63833888  0.80913620    -0.59500
H1703       H  0.37988487  0.63981531  0.79360198     0.44500
H1704       H  0.29711680  0.66179859  0.84646541     0.44500
C1705       C  0.38837652  0.76381680  0.79700583    -0.04600
C1706       C  0.39634888  0.78372161  0.80247660    -0.32000
C1707       C  0.39747598  0.79986021  0.78736786     0.37200
C1708       C  0.39082588  0.79602386  0.76643164    -0.05000
C1709       C  0.38088831  0.77689070  0.76171726    -0.31900
C1710       C  0.37958783  0.76092656  0.77672793     0.37100
H1711       H  0.40303606  0.78633509  0.81802695     0.17500
O1712       O  0.40676045  0.81854191  0.79277858    -0.59400
H1713       H  0.37499237  0.77381930  0.74592270     0.17500
O1714       O  0.37010305  0.74232298  0.77124602    -0.59500
H1715       H  0.38028544  0.73489695  0.76193049     0.44500
H1716       H  0.39526739  0.82726026  0.79886972     0.44500
C1717       C  0.41277094  0.68560435  0.89877640    -0.04600
C1718       C  0.41344595  0.66355178  0.90032649    -0.32000
C1719       C  0.41687839  0.65356806  0.91960166     0.37200
C1720       C  0.42003820  0.66554501  0.93809580    -0.05000
C1721       C  0.41885152  0.68768090  0.93678649    -0.31900
C1722       C  0.41534395  0.69772999  0.91729321     0.37100
H1723       H  0.41130019  0.65380657  0.88641393     0.17500
O1724       O  0.41734796  0.63198295  0.92001712    -0.59400
H1725       H  0.42114890  0.69724921  0.95079467     0.17500
O1726       O  0.41498128  0.71929859  0.91649943    -0.59500
H1727       H  0.42980075  0.72341079  0.91406473     0.44500
H1728       H  0.40267934  0.62777157  0.92318222     0.44500
C1729       C  0.05167062  0.56667004  0.66479787    -0.04600
C1730       C  0.05279138  0.57657673  0.68469069    -0.32000
C1731       C  0.07233354  0.58034752  0.69450797     0.37200
C1732       C  0.09117548  0.57431633  0.68435198    -0.05000
C1733       C  0.08990613  0.56436923  0.66453427    -0.31900
C1734       C  0.07054262  0.56031285  0.65493306     0.37100
H1735       H  0.03849447  0.58133710  0.69273036     0.17500
O1736       O  0.07274572  0.58946353  0.71415734    -0.59400
H1737       H  0.10405959  0.55938608  0.65637230     0.17500
O1738       O  0.07036923  0.54987594  0.63593062    -0.59500
H1739       H  0.06983915  0.53471996  0.63957900     0.44500
H1740       H  0.07250499  0.60484556  0.71157032     0.44500
C1741       C  0.05603619  0.66762695  0.56978823    -0.04600
C1742       C  0.07465834  0.65622106  0.56605968    -0.32000
C1743       C  0.09440367  0.66518592  0.56958892     0.37200
C1744       C  0.09605399  0.68610785  0.57719712    -0.05000
C1745       C  0.07742985  0.69761910  0.58089366    -0.31900
C1746       C  0.05757497  0.68864945  0.57703979     0.37100
H1747       H  0.07400261  0.64018000  0.56022004     0.17500
O1748       O  0.11199111  0.65329445  0.56516699    -0.59400
H1749       H  0.07822082  0.71368612  0.58662410     0.17500
O1750       O  0.03982898  0.70054682  0.58065838    -0.59500
H1751       H  0.03710262  0.70812012  0.56724090     0.44500
H1752       H  0.11488387  0.64511416  0.57817042     0.44500
C1753       C  0.42626956  0.93539253  0.66730905    -0.04600
C1754       C  0.41814795  0.93461404  0.68793739    -0.32000
C1755       C  0.41482652  0.91527465  0.69809954     0.37200
C1756       C  0.41960544  0.89620177  0.68764144    -0.05000
C1757       C  0.42794679  0.89708885  0.66713245    -0.31900
C1758       C  0.43143977  0.91628347  0.65709249     0.37100
H1759       H  0.41432517  0.94905701  0.69627659     0.17500
O1760       O  0.40723986  0.91527754  0.71831448    -0.59400
H1761       H  0.43187049  0.88275004  0.65865203     0.17500
O1762       O  0.43962162  0.91603956  0.63710142    -0.59500
H1763       H  0.45514181  0.91542146  0.63911454     0.44500
H1764       H  0.39179451  0.91728833  0.71683064     0.44500
C1765       C  0.32369390  0.93427365  0.56768757    -0.04600
C1766       C  0.33642618  0.91615488  0.56667846    -0.32000
C1767       C  0.32826446  0.89622409  0.57061751     0.37200
C1768       C  0.30670128  0.89377299  0.57545666    -0.05000
C1769       C  0.29391027  0.91189963  0.57688405    -0.31900
C1770       C  0.30220823  0.93201487  0.57299310     0.37100
H1771       H  0.35298911  0.91735407  0.56285472     0.17500
O1772       O  0.34168710  0.87921565  0.56959120    -0.59400
H1773       H  0.27737533  0.91048743  0.58073911     0.17500
O1774       O  0.28916794  0.94927384  0.57445330    -0.59500
H1775       H  0.28154920  0.94986937  0.56076658     0.44500
H1776       H  0.34770597  0.87783710  0.58401375     0.44500
C1777       C  0.27865856  0.47525905  0.81212117    -0.04600
C1778       C  0.25934742  0.48608343  0.81327756    -0.32000
C1779       C  0.25848817  0.50794206  0.81193076     0.37200
C1780       C  0.27722408  0.51946605  0.80970017    -0.05000
C1781       C  0.29619598  0.50856095  0.80591282    -0.31900
C1782       C  0.29700003  0.48651319  0.80703648     0.37100
H1783       H  0.24492650  0.47767563  0.81645845     0.17500
O1784       O  0.23940896  0.51791700  0.81448158    -0.59400
H1785       H  0.31071650  0.51713282  0.80381110     0.17500
O1786       O  0.31610164  0.47644003  0.80525982    -0.59500
H1787       H  0.31684052  0.47177115  0.79034525     0.44500
H1788       H  0.23433852  0.52094823  0.79996855     0.44500
C1789       C  0.30008900  0.42496653  0.89960297    -0.04600
C1790       C  0.31663263  0.43946647  0.90127766    -0.32000
C1791       C  0.32736838  0.44260630  0.92028017     0.37200
C1792       C  0.32168151  0.43121167  0.93835808    -0.05000
C1793       C  0.30449992  0.41735101  0.93703303    -0.31900
C1794       C  0.29362818  0.41428428  0.91788498     0.37100
H1795       H  0.32165060  0.44827484  0.88761961     0.17500
O1796       O  0.34316862  0.45720708  0.92101061    -0.59400
H1797       H  0.29963421  0.40863269  0.95080269     0.17500
O1798       O  0.27730121  0.40029742  0.91712219    -0.59500
H1799       H  0.26457150  0.40871037  0.92080241     0.44500
H1800       H  0.35578943  0.44983687  0.91542485     0.44500
C1801       C  0.17706727  0.47444738  0.71064643    -0.04600
C1802       C  0.17693008  0.48609600  0.72950167    -0.32000
C1803       C  0.17608875  0.50803677  0.72916240     0.37200
C1804       C  0.17513288  0.51869490  0.70972546    -0.05000
C1805       C  0.17742382  0.50718629  0.69090492    -0.31900
C1806       C  0.17827594  0.48514350  0.69124811     0.37100
H1807       H  0.17636818  0.47814647  0.74458446     0.17500
O1808       O  0.17500947  0.51884656  0.74792486    -0.59400
H1809       H  0.17694765  0.51515233  0.67582416     0.17500
O1810       O  0.17856497  0.47427436  0.67249708    -0.59500
H1811       H  0.16353929  0.47237276  0.66858070     0.44500
H1812       H  0.18987281  0.52098654  0.75230328     0.44500
C1813       C  0.19282012  0.39177066  0.76831407    -0.04600
C1814       C  0.21182743  0.38084986  0.76510996    -0.32000
C1815       C  0.22772102  0.38104556  0.78038652     0.37200
C1816       C  0.22470041  0.39206715  0.79950642    -0.05000
C1817       C  0.20481347  0.40102923  0.80370569    -0.31900
C1818       C  0.18884682  0.40088542  0.78823930     0.37100
H1819       H  0.21498732  0.37324740  0.75009521     0.17500
O1820       O  0.24650226  0.37107982  0.77610972    -0.59400
H1821       H  0.20215845  0.40953821  0.81831689     0.17500
O1822       O  0.17034175  0.41149283  0.79203132    -0.59500
H1823       H  0.16073659  0.40078907  0.79790211     0.44500
H1824       H  0.25388012  0.38039107  0.76606575     0.44500
C1825       C  0.32476890  0.36035376  0.82543609    -0.04600
C1826       C  0.32244281  0.34212122  0.83760669    -0.32000
C1827       C  0.33727886  0.32580466  0.83679031     0.37200
C1828       C  0.35505467  0.32744433  0.82363286    -0.05000
C1829       C  0.35701411  0.34532396  0.81081854    -0.31900
C1830       C  0.34198818  0.36162316  0.81152049     0.37100
H1831       H  0.30924367  0.34059342  0.84824374     0.17500
O1832       O  0.33432914  0.30848865  0.84925885    -0.59400
H1833       H  0.37047730  0.34693522  0.80053357     0.17500
O1834       O  0.34466947  0.37892580  0.79898438    -0.59500
H1835       H  0.33857644  0.37496504  0.78509661     0.44500
H1836       H  0.34027248  0.31236302  0.86326755     0.44500
C1837       C  0.41738283  0.30853459  0.89567101    -0.04600
C1838       C  0.41830262  0.29633076  0.91407349    -0.32000
C1839       C  0.42182356  0.30578119  0.93389142     0.37200
C1840       C  0.42420619  0.32785562  0.93559167    -0.05000
C1841       C  0.42286486  0.33998823  0.91719990    -0.31900
C1842       C  0.41968749  0.33058966  0.89746724     0.37100
H1843       H  0.41673870  0.27938525  0.91307027     0.17500
O1844       O  0.42365632  0.29318372  0.95133200    -0.59400
H1845       H  0.42444136  0.35694338  0.91801633     0.17500
O1846       O  0.41836308  0.34329638  0.88004642    -0.59500
H1847       H  0.43315946  0.34602851  0.87600783     0.44500
H1848       H  0.40898805  0.29073951  0.95601026     0.44500
C1849       C  0.39159436  0.19385341  0.76802225    -0.04600
C1850       C  0.37739339  0.21083317  0.76628726    -0.32000
C1851       C  0.37704613  0.22694482  0.78138393     0.37200
C1852       C  0.39073045  0.22611682  0.79895626    -0.05000
C1853       C  0.40327566  0.20801641  0.80195983    -0.31900
C1854       C  0.40385169  0.19196233  0.78660219     0.37100
H1855       H  0.36748322  0.21243388  0.75239332     0.17500
O1856       O  0.36385149  0.24390580  0.77835578    -0.59400
H1857       H  0.41396810  0.20710366  0.81532253     0.17500
O1858       O  0.41803832  0.17573499  0.78892958    -0.59500
H1859       H  0.41011266  0.16442143  0.79605993     0.44500
H1860       H  0.37066422  0.25251569  0.76732123     0.44500
C1861       C  0.42751786  0.05724089  0.66800775    -0.04600
C1862       C  0.41545548  0.05904606  0.68653757    -0.32000
C1863       C  0.41248150  0.07863221  0.69661007     0.37200
C1864       C  0.42188257  0.09687255  0.68838168    -0.05000
C1865       C  0.43433269  0.09488832  0.67017989    -0.31900
C1866       C  0.43704738  0.07550041  0.65997391     0.37100
H1867       H  0.40802635  0.04527940  0.69311879     0.17500
O1868       O  0.40031492  0.07969870  0.71440148    -0.59400
H1869       H  0.44179772  0.10856865  0.66345261     0.17500
O1870       O  0.44925001  0.07466695  0.64218711    -0.59500
H1871       H  0.43961149  0.07843048  0.63041757     0.44500
H1872       H  0.38569641  0.08175971  0.70919414     0.44500
C1873       C  0.28359674  0.17917479  0.47396952    -0.04600
C1874       C  0.30291775  0.17987408  0.48486314    -0.32000
C1875       C  0.30343070  0.18055428  0.50696458     0.37200
C1876       C  0.28441354  0.18091490  0.51833361    -0.05000
C1877       C  0.26522787  0.18235363  0.50730912    -0.31900
C1878       C  0.26469533  0.18148382  0.48533317     0.37100
H1879       H  0.31761092  0.17820010  0.47637067     0.17500
O1880       O  0.32247409  0.17904766  0.51721961    -0.59400
H1881       H  0.25045497  0.18289823  0.51580201     0.17500
O1882       O  0.24551190  0.18151852  0.47523780    -0.59500
H1883       H  0.24300587  0.19636250  0.47105006     0.44500
H1884       H  0.32531923  0.16372996  0.51855859     0.44500
C1885       C  0.32505472  0.17293265  0.63571950    -0.04600
C1886       C  0.34442436  0.18259766  0.63158678    -0.32000
C1887       C  0.36075983  0.18225337  0.64650379     0.37200
C1888       C  0.35776588  0.17245784  0.66616420    -0.05000
C1889       C  0.33800254  0.16385404  0.67074057    -0.31900
C1890       C  0.32172631  0.16407061  0.65579556     0.37100
H1891       H  0.34735961  0.18956512  0.61632141     0.17500
O1892       O  0.37983240  0.19072024  0.64127324    -0.59400
H1893       H  0.33526518  0.15638289  0.68580710     0.17500
O1894       O  0.30299642  0.15471712  0.66072904    -0.59500
H1895       H  0.29440553  0.16598256  0.66745387     0.44500
H1896       H  0.38750494  0.17930859  0.63373475     0.44500
C1897       C  0.30445451  0.09653786  0.57197069    -0.04600
C1898       C  0.32422020  0.09461234  0.56219770    -0.32000
C1899       C  0.33348276  0.07494122  0.55836145     0.37200
C1900       C  0.32317145  0.05635593  0.56443765    -0.05000
C1901       C  0.30320481  0.05815400  0.57394800    -0.31900
C1902       C  0.29381968  0.07800082  0.57764247     0.37100
H1903       H  0.33271114  0.10850290  0.55739458     0.17500
O1904       O  0.35253183  0.07417252  0.54825291    -0.59400
H1905       H  0.29481204  0.04414497  0.57857010     0.17500
O1906       O  0.27420272  0.07901747  0.58656231    -0.59500
H1907       H  0.27677074  0.07907240  0.60199949     0.44500
H1908       H  0.36326775  0.07564431  0.55958370     0.44500
C1909       C  0.18040655  0.28370627  0.52271944    -0.04600
C1910       C  0.18041641  0.26478837  0.51121530    -0.32000
C1911       C  0.18182769  0.26487078  0.48928375     0.37200
C1912       C  0.18305089  0.28412904  0.47842562    -0.05000
C1913       C  0.18529814  0.30287865  0.49000569    -0.31900
C1914       C  0.18399297  0.30277583  0.51208182     0.37100
H1915       H  0.17816059  0.24989925  0.51914551     0.17500
O1916       O  0.18052380  0.24611186  0.47855745    -0.59400
H1917       H  0.18633398  0.31782239  0.48191969     0.17500
O1918       O  0.18399954  0.32157418  0.52279891    -0.59500
H1919       H  0.19909429  0.32485204  0.52515874     0.44500
H1920       H  0.19531267  0.24130938  0.47678926     0.44500
C1921       C  0.19205046  0.22548927  0.60164122    -0.04600
C1922       C  0.18996221  0.20762986  0.58862961    -0.32000
C1923       C  0.20614479  0.19239894  0.58759893     0.37200
C1924       C  0.22477253  0.19509341  0.59952322    -0.05000
C1925       C  0.22600370  0.21201111  0.61376239    -0.31900
C1926       C  0.20974440  0.22691253  0.61511955     0.37100
H1927       H  0.17654880  0.20626563  0.57807139     0.17500
O1928       O  0.20451509  0.17623005  0.57329441    -0.59400
H1929       H  0.24005348  0.21417499  0.62330570     0.17500
O1930       O  0.21191173  0.24353293  0.62883558    -0.59500
H1931       H  0.20398103  0.23946082  0.64157746     0.44500
H1932       H  0.19780216  0.16459981  0.58114175     0.44500
C1933       C  0.16775379  0.32669721  0.63696812    -0.04600
C1934       C  0.15790752  0.32304586  0.65638114    -0.32000
C1935       C  0.15812492  0.33819675  0.67238991     0.37200
C1936       C  0.16831175  0.35757982  0.66920480    -0.05000
C1937       C  0.17916657  0.36079408  0.65024609    -0.31900
C1938       C  0.17886907  0.34561352  0.63415769     0.37100
H1939       H  0.14937934  0.30859787  0.65902481     0.17500
O1940       O  0.14740973  0.33419779  0.69065926    -0.59400
H1941       H  0.18726735  0.37546672  0.64750013     0.17500
O1942       O  0.18911015  0.34969282  0.61563761    -0.59500
H1943       H  0.17900512  0.35813868  0.60713255     0.44500
H1944       H  0.15780020  0.32712288  0.70003812     0.44500
C1945       C  0.05493967  0.42576000  0.66847134    -0.04600
C1946       C  0.05585266  0.41860831  0.68949177    -0.32000
C1947       C  0.07530922  0.41539819  0.69979302     0.37200
C1948       C  0.09424145  0.41951157  0.68911328    -0.05000
C1949       C  0.09319827  0.42664722  0.66817090    -0.31900
C1950       C  0.07395811  0.42980533  0.65792174     0.37100
H1951       H  0.04146001  0.41551320  0.69800159     0.17500
O1952       O  0.07556780  0.40865135  0.72031997    -0.59400
H1953       H  0.10746133  0.42973073  0.65943161     0.17500
O1954       O  0.07406721  0.43641060  0.63734413    -0.59500
H1955       H  0.07529810  0.45197214  0.63812332     0.44500
H1956       H  0.07494416  0.39308188  0.71943211     0.44500
C1957       C  0.05232646  0.32313136  0.56571089    -0.04600
C1958       C  0.06966156  0.32849482  0.55327508    -0.32000
C1959       C  0.08936679  0.31902931  0.55642129     0.37200
C1960       C  0.09227468  0.30377121  0.57240347    -0.05000
C1961       C  0.07486211  0.29814904  0.58470683    -0.31900
C1962       C  0.05506376  0.30774628  0.58155017     0.37100
H1963       H  0.06802442  0.34021559  0.54098881     0.17500
O1964       O  0.10578282  0.32530129  0.54400574    -0.59400
H1965       H  0.07667570  0.28662641  0.59714834     0.17500
O1966       O  0.03863724  0.30214311  0.59425781    -0.59500
H1967       H  0.03916134  0.31208949  0.60635943     0.44500
H1968       H  0.10535487  0.31589850  0.53147963     0.44500
C1969       C  0.70552453  0.18233652  0.52211235    -0.04600
C1970       C  0.68662115  0.18588100  0.51108758    -0.32000
C1971       C  0.68641469  0.18604574  0.48899773     0.37200
C1972       C  0.70535239  0.18279315  0.47787387    -0.05000
C1973       C  0.72445563  0.18157690  0.48906467    -0.31900
C1974       C  0.72465568  0.18136924  0.51101202     0.37100
H1975       H  0.67180440  0.18667802  0.51947958     0.17500
O1976       O  0.66743831  0.18702001  0.47858500    -0.59400
H1977       H  0.73922422  0.17949315  0.48077685     0.17500
O1978       O  0.74351578  0.17862596  0.52139422    -0.59500
H1979       H  0.74710977  0.19271301  0.52711724     0.44500
H1980       H  0.66466714  0.20223509  0.47641962     0.44500
C1981       C  0.47207339  0.18698215  0.70845872    -0.04600
C1982       C  0.48268974  0.18826140  0.72788648    -0.32000
C1983       C  0.50462306  0.18767166  0.72881185     0.37200
C1984       C  0.51631887  0.18621509  0.71003467    -0.05000
C1985       C  0.50578521  0.18785389  0.69053457    -0.31900
C1986       C  0.48370918  0.18825190  0.68964006     0.37100
H1987       H  0.47397030  0.18797341  0.74254010     0.17500
O1988       O  0.51442587  0.18739508  0.74818349    -0.59400
H1989       H  0.51454618  0.18695634  0.67592726     0.17500
O1990       O  0.47384860  0.18743699  0.67035034    -0.59500
H1991       H  0.47163851  0.20234487  0.66627316     0.44500
H1992       H  0.51236589  0.17296460  0.75369852     0.44500
C1993       C  0.63021108  0.17139590  0.66833716    -0.04600
C1994       C  0.64857980  0.15929475  0.67121962    -0.32000
C1995       C  0.66419078  0.15862161  0.65588537     0.37200
C1996       C  0.66174016  0.17034853  0.63718041    -0.05000
C1997       C  0.64387700  0.18335414  0.63473368    -0.31900
C1998       C  0.62825080  0.18409530  0.65021921     0.37100
H1999       H  0.65063335  0.14964399  0.68514687     0.17500
O2000       O  0.68153802  0.14601515  0.65923715    -0.59400
H2001       H  0.64176027  0.19266101  0.62058102     0.17500
O2002       O  0.61084955  0.19664955  0.64704234    -0.59500
H2003       H  0.61444475  0.21037005  0.65364975     0.44500
H2004       H  0.67717550  0.13172015  0.65480833     0.44500
C2005       C  0.80653004  0.28632441  0.51889501    -0.04600
C2006       C  0.80408315  0.26747568  0.50757678    -0.32000
C2007       C  0.80486514  0.26733151  0.48555714     0.37200
C2008       C  0.80795724  0.28627906  0.47457740    -0.05000
C2009       C  0.80807851  0.30537434  0.48577515    -0.31900
C2010       C  0.80743257  0.30550344  0.50786640     0.37100
H2011       H  0.80293432  0.25263348  0.51584993     0.17500
O2012       O  0.80332801  0.24852969  0.47491577    -0.59400
H2013       H  0.81051934  0.32005910  0.47754172     0.17500
O2014       O  0.81029431  0.32414107  0.51845994    -0.59500
H2015       H  0.79605189  0.33068333  0.51925652     0.44500
H2016       H  0.81724063  0.24149147  0.47676201     0.44500
C2017       C  0.79178601  0.22923158  0.60175878    -0.04600
C2018       C  0.77260137  0.23331659  0.61196616    -0.32000
C2019       C  0.75665261  0.21829092  0.61240005     0.37200
C2020       C  0.75973762  0.19839787  0.60281736    -0.05000
C2021       C  0.77960816  0.19361607  0.59419389    -0.31900
C2022       C  0.79558194  0.20885954  0.59360454     0.37100
H2023       H  0.76941505  0.24873249  0.61868072     0.17500
O2024       O  0.73782293  0.22353661  0.62167278    -0.59400
H2025       H  0.78233355  0.17851725  0.58663508     0.17500
O2026       O  0.81400693  0.20426273  0.58331194    -0.59500
H2027       H  0.82285982  0.19668417  0.59380656     0.44500
H2028       H  0.73036241  0.23264824  0.61129926     0.44500
C2029       C  0.89140664  0.30602372  0.56905909    -0.04600
C2030       C  0.90986759  0.29529110  0.57521824    -0.32000
C2031       C  0.92981966  0.30405786  0.57181683     0.37200
C2032       C  0.93160905  0.32401151  0.56222087    -0.05000
C2033       C  0.91317599  0.33445635  0.55565445    -0.31900
C2034       C  0.89333566  0.32567392  0.55882081     0.37100
H2035       H  0.90886627  0.28014960  0.58292597     0.17500
O2036       O  0.94739617  0.29295769  0.57801088    -0.59400
H2037       H  0.91405675  0.34967646  0.54807173     0.17500
O2038       O  0.87592162  0.33683209  0.55223697    -0.59500
H2039       H  0.87348252  0.33230524  0.53743566     0.44500
H2040       H  0.95018583  0.29753603  0.59275189     0.44500
C2041       C  0.51536189  0.28655826  0.80873189    -0.04600
C2042       C  0.50463736  0.26737497  0.80760066    -0.32000
C2043       C  0.48269886  0.26692352  0.80760743     0.37200
C2044       C  0.47110610  0.28586247  0.80908204    -0.05000
C2045       C  0.48171268  0.30512154  0.80765711    -0.31900
C2046       C  0.50381577  0.30556369  0.80747672     0.37100
H2047       H  0.51330037  0.25260413  0.80804738     0.17500
O2048       O  0.47278747  0.24781116  0.80769650    -0.59400
H2049       H  0.47299795  0.31983764  0.80849199     0.17500
O2050       O  0.51386631  0.32459627  0.80793320    -0.59500
H2051       H  0.51533743  0.32822536  0.82311506     0.44500
H2052       H  0.46847475  0.24530146  0.79283013     0.44500
C2053       C  0.59827621  0.22720578  0.79918280    -0.04600
C2054       C  0.58759588  0.20831835  0.80303281    -0.32000
C2055       C  0.58771074  0.19196060  0.78800378     0.37200
C2056       C  0.59848398  0.19452309  0.76877378    -0.05000
C2057       C  0.61107566  0.21238650  0.76616676    -0.31900
C2058       C  0.61111997  0.22855467  0.78116625     0.37100
H2059       H  0.57779131  0.20686213  0.81687999     0.17500
O2060       O  0.57550997  0.17460085  0.79136210    -0.59400
H2061       H  0.61991391  0.21450790  0.75175831     0.17500
O2062       O  0.62263963  0.24628341  0.77726964    -0.59500
H2063       H  0.63662258  0.24353646  0.78379241     0.44500
H2064       H  0.58485686  0.16449753  0.79888136     0.44500
C2065       C  0.57141186  0.30903545  0.89622792    -0.04600
C2066       C  0.56668685  0.33063613  0.89812532    -0.32000
C2067       C  0.56421800  0.34023449  0.91788242     0.37200
C2068       C  0.56590789  0.32820406  0.93649306    -0.05000
C2069       C  0.57109326  0.30667947  0.93469357    -0.31900
C2070       C  0.57401086  0.29714438  0.91482626     0.37100
H2071       H  0.56500046  0.34031717  0.88417413     0.17500
O2072       O  0.56006385  0.36145001  0.91870637    -0.59400
H2073       H  0.57269987  0.29710901  0.94872428     0.17500
O2074       O  0.57893326  0.27611137  0.91383162    -0.59500
H2075       H  0.59450285  0.27540513  0.91481884     0.44500
H2076       H  0.57406042  0.36820902  0.91947985     0.44500
C2077       C  0.66443660  0.35608219  0.82148916    -0.04600
C2078       C  0.66661421  0.33810927  0.83414587    -0.32000
C2079       C  0.65104783  0.32271643  0.83436302     0.37200
C2080       C  0.63286460  0.32501149  0.82161222    -0.05000
C2081       C  0.63128608  0.34233086  0.80799210    -0.31900
C2082       C  0.64685476  0.35780326  0.80786351     0.37100
H2083       H  0.68005496  0.33630694  0.84462309     0.17500
O2084       O  0.65358164  0.30582466  0.84758535    -0.59400
H2085       H  0.61761278  0.34428595  0.79785201     0.17500
O2086       O  0.64455861  0.37461799  0.79452129    -0.59500
H2087       H  0.63511976  0.38465069  0.80200879     0.44500
H2088       H  0.64804386  0.31062035  0.86142214     0.44500
C2089       C  0.68536382  0.41994598  0.89754752    -0.04600
C2090       C  0.66713657  0.43256277  0.89934523    -0.32000
C2091       C  0.65754983  0.43618293  0.91883892     0.37200
C2092       C  0.66589563  0.42693513  0.93729452    -0.05000
C2093       C  0.68443164  0.41469034  0.93570120    -0.31900
C2094       C  0.69411667  0.41111575  0.91605569     0.37100
H2095       H  0.66009515  0.43972906  0.88548807     0.17500
O2096       O  0.63993780  0.44882662  0.91955913    -0.59400
H2097       H  0.69130652  0.40759972  0.94967841     0.17500
O2098       O  0.71203100  0.39893916  0.91519284    -0.59500
H2099       H  0.70699688  0.38425188  0.91387052     0.44500
H2100       H  0.64534367  0.46335804  0.92119512     0.44500
C2101       C  0.82035307  0.35942877  0.66664416    -0.04600
C2102       C  0.80856491  0.36253203  0.64807673    -0.32000
C2103       C  0.80829093  0.34724905  0.63211533     0.37200
C2104       C  0.81974647  0.32829540  0.63465670    -0.05000
C2105       C  0.83075939  0.32482136  0.65362128    -0.31900
C2106       C  0.83107532  0.34009069  0.66953895     0.37100
H2107       H  0.80010634  0.37719157  0.64552467     0.17500
O2108       O  0.79721887  0.35131729  0.61391403    -0.59400
H2109       H  0.83960573  0.31035778  0.65601356     0.17500
O2110       O  0.84257993  0.33615596  0.68750349    -0.59500
H2111       H  0.83257947  0.32944239  0.69733417     0.44500
H2112       H  0.80715374  0.35898279  0.60473722     0.44500
C2113       C  0.79580926  0.39432821  0.76676784    -0.04600
C2114       C  0.79873004  0.40546978  0.78580149    -0.32000
C2115       C  0.78347346  0.40479168  0.80186536     0.37200
C2116       C  0.76488475  0.39306778  0.79884176    -0.05000
C2117       C  0.76312190  0.38036666  0.78075063    -0.31900
C2118       C  0.77830938  0.38090259  0.76486488     0.37100
H2119       H  0.81210316  0.41581597  0.78767235     0.17500
O2120       O  0.78600255  0.41713884  0.81948541    -0.59400
H2121       H  0.74926495  0.37077870  0.77831240     0.17500
O2122       O  0.77559872  0.36859655  0.74721540    -0.59500
H2123       H  0.76455102  0.37583959  0.73870726     0.44500
H2124       H  0.79429652  0.40835972  0.82947718     0.44500
C2125       C  0.89401820  0.42366410  0.68726760    -0.04600
C2126       C  0.91170450  0.41276963  0.69521156    -0.32000
C2127       C  0.93157192  0.41476334  0.68575410     0.37200
C2128       C  0.93410860  0.42798255  0.66808677    -0.05000
C2129       C  0.91649101  0.43906711  0.66038180    -0.31900
C2130       C  0.89673376  0.43713963  0.66978958     0.37100
H2131       H  0.91007556  0.40229828  0.70853581     0.17500
O2132       O  0.94830504  0.40359784  0.69387692    -0.59400
H2133       H  0.91796499  0.44940324  0.64692221     0.17500
O2134       O  0.88013126  0.44835366  0.66144777    -0.59500
H2135       H  0.88031579  0.46210870  0.66890892     0.44500
H2136       H  0.94797796  0.38977852  0.68651310     0.44500
C2137       C  0.55889622  0.05697073  0.67160252    -0.04600
C2138       C  0.57159424  0.05866509  0.68980810    -0.32000
C2139       C  0.57522994  0.07829622  0.69942620     0.37200
C2140       C  0.56585275  0.09667354  0.69105350    -0.05000
C2141       C  0.55252698  0.09476793  0.67333186    -0.31900
C2142       C  0.54898378  0.07526762  0.66369436     0.37100
H2143       H  0.57923919  0.04480956  0.69630601     0.17500
O2144       O  0.58825935  0.07931708  0.71672925    -0.59400
H2145       H  0.54494609  0.10855777  0.66661738     0.17500
O2146       O  0.53600893  0.07442408  0.64632620    -0.59500
H2147       H  0.52179279  0.07137270  0.65196471     0.44500
H2148       H  0.60271862  0.08001712  0.71094393     0.44500
C2149       C  0.68174096  0.09697515  0.57454499    -0.04600
C2150       C  0.66103077  0.09550303  0.56662874    -0.32000
C2151       C  0.65138306  0.07599756  0.56348998     0.37200
C2152       C  0.66238386  0.05717806  0.56819596    -0.05000
C2153       C  0.68319788  0.05857346  0.57586723    -0.31900
C2154       C  0.69280484  0.07819947  0.57918384     0.37100
H2155       H  0.65204539  0.10960779  0.56296140     0.17500
O2156       O  0.63105021  0.07564677  0.55603438    -0.59400
H2157       H  0.69205610  0.04439079  0.57951490     0.17500
O2158       O  0.71303343  0.07875922  0.58685346    -0.59500
H2159       H  0.71158745  0.07887759  0.60242129     0.44500
H2160       H  0.63231426  0.07512774  0.54042707     0.44500
C2161       C  0.69841304  0.80270251  0.51978773    -0.04600
C2162       C  0.67991560  0.80837220  0.50887857    -0.32000
C2163       C  0.67979714  0.80970323  0.48682670     0.37200
C2164       C  0.69832146  0.80511205  0.47549826    -0.05000
C2165       C  0.71589019  0.79684304  0.48627473    -0.31900
C2166       C  0.71595411  0.79539784  0.50827082     0.37100
H2167       H  0.66619965  0.81387671  0.51745739     0.17500
O2168       O  0.66224741  0.81758898  0.47678102    -0.59400
H2169       H  0.73012356  0.79282037  0.47773341     0.17500
O2170       O  0.73385562  0.78847507  0.51839523    -0.59500
H2171       H  0.73127540  0.77341749  0.52148442     0.44500
H2172       H  0.66392594  0.83310671  0.47703470     0.44500
C2173       C  0.68461376  0.89400569  0.56909221    -0.04600
C2174       C  0.69174565  0.91113986  0.58119638    -0.32000
C2175       C  0.68243494  0.93120758  0.57915280     0.37200
C2176       C  0.66568615  0.93453937  0.56471069    -0.05000
C2177       C  0.65909468  0.91752723  0.55211860    -0.31900
C2178       C  0.66840191  0.89755552  0.55409198     0.37100
H2179       H  0.70418795  0.90887853  0.59276044     0.17500
O2180       O  0.68970697  0.94733642  0.59158045    -0.59400
H2181       H  0.64650155  0.91962834  0.54068458     0.17500
O2182       O  0.66116770  0.88154291  0.54145435    -0.59500
H2183       H  0.67067594  0.88131569  0.52910296     0.44500
H2184       H  0.68173624  0.94626692  0.60495569     0.44500
C2185       C  0.80717072  0.70760626  0.52306321    -0.04600
C2186       C  0.80404300  0.72639375  0.51187317    -0.32000
C2187       C  0.80321949  0.72627815  0.48988726     0.37200
C2188       C  0.80596492  0.70723318  0.47879542    -0.05000
C2189       C  0.80657872  0.68820518  0.48994663    -0.31900
C2190       C  0.80705206  0.68828264  0.51205412     0.37100
H2191       H  0.80353279  0.74136335  0.52013812     0.17500
O2192       O  0.80126999  0.74502675  0.47936104    -0.59400
H2193       H  0.80855054  0.67340320  0.48159249     0.17500
O2194       O  0.80988575  0.66962813  0.52253455    -0.59500
H2195       H  0.79557043  0.66360810  0.52374964     0.44500
H2196       H  0.78594417  0.74686590  0.47683448     0.44500
C2197       C  0.79745086  0.76900626  0.60142676    -0.04600
C2198       C  0.79884296  0.78590994  0.58727183    -0.32000
C2199       C  0.78280633  0.80124266  0.58616972     0.37200
C2200       C  0.76503009  0.79970998  0.59931478    -0.05000
C2201       C  0.76482404  0.78407697  0.61491516    -0.31900
C2202       C  0.78075120  0.76877012  0.61598189     0.37100
H2203       H  0.81152286  0.78636651  0.57591125     0.17500
O2204       O  0.78370866  0.81632528  0.57080242    -0.59400
H2205       H  0.75157453  0.78288856  0.62554660     0.17500
O2206       O  0.77946397  0.75320025  0.63085608    -0.59500
H2207       H  0.76854514  0.74338228  0.62548392     0.44500
H2208       H  0.79126213  0.82827950  0.57744478     0.44500
C2209       C  0.89690659  0.69171526  0.57356667    -0.04600
C2210       C  0.91393972  0.69623825  0.58708869    -0.32000
C2211       C  0.93381093  0.68673894  0.58395478     0.37200
C2212       C  0.93694263  0.67257499  0.56694866    -0.05000
C2213       C  0.92005958  0.66869665  0.55313604    -0.31900
C2214       C  0.90029138  0.67792336  0.55634226     0.37100
H2215       H  0.91172873  0.70669905  0.60045845     0.17500
O2216       O  0.94992445  0.69132495  0.59769106    -0.59400
H2217       H  0.92200992  0.65811396  0.53982119     0.17500
O2218       O  0.88440196  0.67340914  0.54229974    -0.59500
H2219       H  0.87887791  0.65955989  0.54675848     0.44500
H2220       H  0.94834192  0.68130810  0.60953370     0.44500
C2221       C  0.47671951  0.81603949  0.71389690    -0.04600
C2222       C  0.48776107  0.82069837  0.73254627    -0.32000
C2223       C  0.50968247  0.82097865  0.73293122     0.37200
C2224       C  0.52110528  0.81663398  0.71436892    -0.05000
C2225       C  0.51017720  0.81015273  0.69615205    -0.31900
C2226       C  0.48808202  0.80988224  0.69579429     0.37100
H2227       H  0.47936561  0.82506859  0.74677299     0.17500
O2228       O  0.51968513  0.82667067  0.75131807    -0.59400
H2229       H  0.51867685  0.80647603  0.68180366     0.17500
O2230       O  0.47784692  0.80470129  0.67739414    -0.59500
H2231       H  0.47687321  0.81800030  0.66928677     0.44500
H2232       H  0.52232293  0.81327837  0.75891613     0.44500
C2233       C  0.63625734  0.81596659  0.66904350    -0.04600
C2234       C  0.65614373  0.82495692  0.67230599    -0.32000
C2235       C  0.67108999  0.82503702  0.65628346     0.37200
C2236       C  0.66622661  0.81618590  0.63642350    -0.05000
C2237       C  0.64713426  0.80544680  0.63377377    -0.31900
C2238       C  0.63221845  0.80516488  0.64995402     0.37100
H2239       H  0.65985944  0.83285722  0.68703752     0.17500
O2240       O  0.68999103  0.83475114  0.65995430    -0.59400
H2241       H  0.64324917  0.79818408  0.61876051     0.17500
O2242       O  0.61327293  0.79553507  0.64633211    -0.59500
H2243       H  0.61534724  0.78083242  0.65114986     0.44500
H2244       H  0.69960932  0.82342470  0.66495704     0.44500
C2245       C  0.57739196  0.89647450  0.68801659    -0.04600
C2246       C  0.57993856  0.91499364  0.69997040    -0.32000
C2247       C  0.57504824  0.93482800  0.69130686     0.37200
C2248       C  0.56752810  0.93639778  0.67031104    -0.05000
C2249       C  0.56526643  0.91790309  0.65841023    -0.31900
C2250       C  0.57019025  0.89823833  0.66691685     0.37100
H2251       H  0.58546550  0.91411247  0.71615134     0.17500
O2252       O  0.57765104  0.95248751  0.70354017    -0.59400
H2253       H  0.55966554  0.91859377  0.64224107     0.17500
O2254       O  0.56754684  0.88079747  0.65436385    -0.59500
H2255       H  0.58111315  0.87896097  0.64684785     0.44500
H2256       H  0.56417398  0.95428326  0.71120719     0.44500
C2257       C  0.51448342  0.71067925  0.81529424    -0.04600
C2258       C  0.50421768  0.69138093  0.81204481    -0.32000
C2259       C  0.48217346  0.69020156  0.81300276     0.37200
C2260       C  0.47022250  0.70855720  0.81702041    -0.05000
C2261       C  0.48043705  0.72798942  0.81846227    -0.31900
C2262       C  0.50232490  0.72915625  0.81780564     0.37100
H2263       H  0.51330778  0.67697561  0.81026503     0.17500
O2264       O  0.47273725  0.67087251  0.81206120    -0.59400
H2265       H  0.47145779  0.74233675  0.82112093     0.17500
O2266       O  0.51169522  0.74841700  0.82023706    -0.59500
H2267       H  0.51091042  0.75162907  0.83555533     0.44500
H2268       H  0.47040103  0.66810684  0.79681347     0.44500
C2269       C  0.60193223  0.76623498  0.79978616    -0.04600
C2270       C  0.59223179  0.78583243  0.80361898    -0.32000
C2271       C  0.59276759  0.80178728  0.78832906     0.37200
C2272       C  0.60352711  0.79829487  0.76918943    -0.05000
C2273       C  0.61510506  0.77956098  0.76655587    -0.31900
C2274       C  0.61439644  0.76364571  0.78161533     0.37100
H2275       H  0.58260014  0.78810524  0.81751942     0.17500
O2276       O  0.58113344  0.81981668  0.79142244    -0.59400
H2277       H  0.62365569  0.77664022  0.75206273     0.17500
O2278       O  0.62466535  0.74497505  0.77759877    -0.59500
H2279       H  0.63819900  0.74592703  0.78543069     0.44500
H2280       H  0.56676567  0.81646012  0.78620412     0.44500
C2281       C  0.57024327  0.68795740  0.89648003    -0.04600
C2282       C  0.57900184  0.69670865  0.91495050    -0.32000
C2283       C  0.57613546  0.68699353  0.93467756     0.37200
C2284       C  0.56423425  0.66830906  0.93610142    -0.05000
C2285       C  0.55522415  0.66000054  0.91768981    -0.31900
C2286       C  0.55797477  0.66957375  0.89821175     0.37100
H2287       H  0.58835335  0.71086730  0.91408194     0.17500
O2288       O  0.58490689  0.69595865  0.95235551    -0.59400
H2289       H  0.54587477  0.64582393  0.91826165     0.17500
O2290       O  0.54871703  0.66044589  0.88086728    -0.59500
H2291       H  0.53439442  0.66678282  0.88003600     0.44500
H2292       H  0.59973149  0.69090021  0.95261165     0.44500
C2293       C  0.80733020  0.51986979  0.71028352    -0.04600
C2294       C  0.80550904  0.50946491  0.69073430    -0.32000
C2295       C  0.80525892  0.48739348  0.68970366     0.37200
C2296       C  0.80685174  0.47560068  0.70843784    -0.05000
C2297       C  0.80615761  0.48610842  0.72793726    -0.31900
C2298       C  0.80645048  0.50800396  0.72898669     0.37100
H2299       H  0.80601964  0.51832865  0.67618161     0.17500
O2300       O  0.80580360  0.47765825  0.67035591    -0.59400
H2301       H  0.80686920  0.47729426  0.74253657     0.17500
O2302       O  0.80747934  0.51753128  0.74843148    -0.59500
H2303       H  0.79269146  0.52107448  0.75201817     0.44500
H2304       H  0.79082133  0.47612426  0.66611135     0.44500
C2305       C  0.82290182  0.63570790  0.66851219    -0.04600
C2306       C  0.81135064  0.63290727  0.64973587    -0.32000
C2307       C  0.81136569  0.64823817  0.63392393     0.37200
C2308       C  0.82297332  0.66689192  0.63676697    -0.05000
C2309       C  0.83400220  0.66994025  0.65579679    -0.31900
C2310       C  0.83400945  0.65464983  0.67156804     0.37100
H2311       H  0.80266424  0.61853078  0.64700884     0.17500
O2312       O  0.80017694  0.64464127  0.61569684    -0.59400
H2313       H  0.84306346  0.68410983  0.65839343     0.17500
O2314       O  0.84552615  0.65819387  0.68960032    -0.59500
H2315       H  0.83590370  0.66607107  0.69912148     0.44500
H2316       H  0.80982742  0.63639743  0.60650778     0.44500
C2317       C  0.89328924  0.56952128  0.68895512    -0.04600
C2318       C  0.89382390  0.55852918  0.66961877    -0.32000
C2319       C  0.91271684  0.55495105  0.65891783     0.37200
C2320       C  0.93190003  0.56203370  0.66759353    -0.05000
C2321       C  0.93150772  0.57276615  0.68710201    -0.31900
C2322       C  0.91244255  0.57659476  0.69771990     0.37100
H2323       H  0.87940202  0.55288676  0.66241299     0.17500
O2324       O  0.91214249  0.54436763  0.64000570    -0.59400
H2325       H  0.94600601  0.57851111  0.69405724     0.17500
O2326       O  0.91270639  0.58785657  0.71622539    -0.59500
H2327       H  0.91627448  0.57744865  0.72732381     0.44500
H2328       H  0.90905752  0.55530245  0.62926273     0.44500
C2329       C  0.70119949  0.51572090  0.80749373    -0.04600
C2330       C  0.72055344  0.50499923  0.80627725    -0.32000
C2331       C  0.72145802  0.48308079  0.80690989     0.37200
C2332       C  0.70277214  0.47143990  0.80859872    -0.05000
C2333       C  0.68326290  0.48197299  0.80710127    -0.31900
C2334       C  0.68237208  0.50407310  0.80652398     0.37100
H2335       H  0.73519614  0.51365972  0.80628574     0.17500
O2336       O  0.74076998  0.47318322  0.80678335    -0.59400
H2337       H  0.66872351  0.47322796  0.80817588     0.17500
O2338       O  0.66312786  0.51400601  0.80728321    -0.59500
H2339       H  0.65890813  0.51597245  0.79231294     0.44500
H2340       H  0.74669787  0.47532939  0.82115400     0.44500
C2341       C  0.65935137  0.63204314  0.81805130    -0.04600
C2342       C  0.63890587  0.62802126  0.81051616    -0.32000
C2343       C  0.62347644  0.64392821  0.81048844     0.37200
C2344       C  0.62841201  0.66414460  0.81826868    -0.05000
C2345       C  0.64918427  0.66842333  0.82450315    -0.31900
C2346       C  0.66459772  0.65267175  0.82430869     0.37100
H2347       H  0.63457854  0.61229295  0.80553527     0.17500
O2348       O  0.60334590  0.63909788  0.80427308    -0.59400
H2349       H  0.65342849  0.68396024  0.83014091     0.17500
O2350       O  0.68459077  0.65752699  0.83094692    -0.59500
H2351       H  0.69224500  0.66139411  0.81794296     0.44500
H2352       H  0.60311991  0.64117351  0.78878296     0.44500
C2353       C  0.76014999  0.59982282  0.79705498    -0.04600
C2354       C  0.77926415  0.58927599  0.80129324    -0.32000
C2355       C  0.79591955  0.58973200  0.78675111     0.37200
C2356       C  0.79367697  0.60114464  0.76780098    -0.05000
C2357       C  0.77543722  0.61346329  0.76477500    -0.31900
C2358       C  0.75870716  0.61270412  0.77903317     0.37100
H2359       H  0.78067231  0.57920866  0.81499373     0.17500
O2360       O  0.81319280  0.57705877  0.79010126    -0.59400
H2361       H  0.77348091  0.62262607  0.75050068     0.17500
O2362       O  0.74065406  0.62397842  0.77474718    -0.59500
H2363       H  0.73315143  0.61578810  0.76367250     0.44500
H2364       H  0.82302069  0.58570803  0.79866767     0.44500
C2365       C  0.68323957  0.56896060  0.89430838    -0.04600
C2366       C  0.69087040  0.58042823  0.91172691    -0.32000
C2367       C  0.68211804  0.57781847  0.93189165     0.37200
C2368       C  0.66537185  0.56362283  0.93486902    -0.05000
C2369       C  0.65820934  0.55183226  0.91753063    -0.31900
C2370       C  0.66692342  0.55434480  0.89751630     0.37100
H2371       H  0.70329409  0.59181353  0.90963966     0.17500
O2372       O  0.68951579  0.58982279  0.94832672    -0.59400
H2373       H  0.64568078  0.54052100  0.91941919     0.17500
O2374       O  0.65957671  0.54204211  0.88125041    -0.59500
H2375       H  0.64616462  0.54877801  0.87667619     0.44500
H2376       H  0.70140900  0.58157585  0.95442221     0.44500
loop_ 
_geom_bond_atom_site_label_1 
_geom_bond_atom_site_label_2 
_geom_bond_distance 
_geom_bond_site_symmetry_2 
_ccdc_geom_bond_type 
O1            C4   1.268       .  A
O1           Cd6   2.498       .  S
C2           O11   1.266       .  A
C2            O7   1.269       .  A
C2         C2341   1.477       .  S
O3            C9   1.271       .  A
O3           Cd6   2.527       .  S
C4           O12   1.265       .  A
C4         C2329   1.478       .  S
C5           O10   1.271       .  A
C5            O8   1.265       .  A
C5         C2353   1.485       .  S
Cd6          O13   2.405       .  S
Cd6          O12   2.411       .  S
Cd6          O11   2.415       .  S
Cd6           O7   2.464       .  S
Cd6          O10   2.508       .  S
Cd6           O8   2.428       .  S
C9           O13   1.261       .  A
C9         C2365   1.486       .  S
O14          C17   1.270       .  A
O14         Cd19   2.479       .  S
C15          O24   1.268       .  A
C15          O20   1.271       .  A
C15        C2305   1.482       .  S
O16          C22   1.273       .  A
O16         Cd19   2.510       .  S
C17          O25   1.265       .  A
C17        C2293   1.477       .  S
C18          O23   1.274       .  A
C18          O21   1.263       .  A
C18        C2317   1.489       .  S
Cd19         O26   2.418       .  S
Cd19         O25   2.413       .  S
Cd19         O24   2.426       .  S
Cd19         O20   2.455       .  S
Cd19         O23   2.530       .  S
Cd19         O21   2.398       .  S
C22          O26   1.266       .  A
C22        C2356   1.486       .  S
O27          C30   1.269       .  A
O27         Cd32   2.458       .  S
C28          O37   1.265       .  A
C28          O33   1.268       .  A
C28        C2257   1.476       .  S
O29          C35   1.272       .  A
O29         Cd32   2.540       .  S
C30          O38   1.267       .  A
C30        C2344   1.476       .  S
C31          O36   1.271       .  A
C31          O34   1.264       .  A
C31        C2269   1.478       .  S
Cd32         O39   2.372       .  S
Cd32         O38   2.409       .  S
Cd32         O37   2.409       .  S
Cd32         O33   2.480       .  S
Cd32         O36   2.502       .  S
Cd32         O34   2.401       .  S
C35          O39   1.261       .  A
C35        C2281   1.487       .  S
O40          C43   1.270       .  A
O40         Cd45   2.449       .  S
C41          O50   1.263       .  A
C41          O46   1.269       .  A
C41        C2224   1.476       .  S
O42          C48   1.272       .  A
O42         Cd45   2.505       .  S
C43          O51   1.269       .  A
C43        C2233   1.477       .  S
C44          O49   1.273       .  A
C44          O47   1.262       .  A
C44        C2245   1.490       .  S
Cd45         O52   2.400       .  S
Cd45         O51   2.406       .  S
Cd45         O50   2.386       .  S
Cd45         O46   2.480       .  S
Cd45         O49   2.532       .  S
Cd45         O47   2.391       .  S
C48          O52   1.265       .  A
C48        C2272   1.479       .  S
O53          C56   1.269       .  A
O53         Cd58   2.450       .  S
C54          O63   1.265       .  A
C54          O59   1.269       .  A
C54        C2185   1.473       .  S
O55          C61   1.270       .  A
O55         Cd58   2.495       .  S
C56          O64   1.267       .  A
C56        C2308   1.480       .  S
C57          O62   1.271       .  A
C57          O60   1.261       .  A
C57        C2209   1.487       .  S
Cd58         O65   2.424       .  S
Cd58         O64   2.424       .  S
Cd58         O63   2.409       .  S
Cd58         O59   2.477       .  S
Cd58         O62   2.529       .  S
Cd58         O60   2.402       .  S
C61          O65   1.265       .  A
C61        C2197   1.481       .  S
O66          C69   1.268       .  A
O66         Cd71   2.461       .  S
C67          O76   1.264       .  A
C67          O72   1.267       .  A
C67        C2161   1.475       .  S
O68          C74   1.270       .  A
O68         Cd71   2.525       .  S
C69          O77   1.265       .  A
C69        C2236   1.476       .  S
C70          O75   1.271       .  A
C70          O73   1.265       .  A
C70        C2200   1.482       .  S
Cd71         O78   2.437       .  S
Cd71         O77   2.416       .  S
Cd71         O76   2.433       .  S
Cd71         O72   2.472       .  S
Cd71         O75   2.495       .  S
Cd71         O73   2.418       .  S
C74          O78   1.261       .  A
C74        C2173   1.491       .  S
O79          C82   1.270       .  A
O79         Cd84   2.539       .  S
C80          O89   1.263       .  A
C80          O85   1.269       .  A
C80          C93   1.482       .  S
O81          C87   1.266       .  A
O81         Cd84   2.512       .  S
C82          O90   1.263   1_565  A
C82         C563   1.480       .  S
C83          O88   1.268       .  A
C83          O86   1.267       .  A
C83        C2152   1.491       .  S
Cd84         O91   2.483       .  S
Cd84         O90   2.458   1_565  S
Cd84         O89   2.476       .  S
Cd84         O85   2.545       .  S
Cd84         O88   2.493   1_565  S
Cd84         O86   2.459   1_565  S
C87          O91   1.265       .  A
C87        C2176   1.494       .  S
O92          C95   1.267       .  A
O92         Cd97   2.527       .  S
C93         O102   1.264       .  A
C93          O98   1.267       .  A
O94         C100   1.265       .  A
O94         Cd97   2.486   1_545  S
C95         O103   1.264       .  A
C95         C303   1.478       .  S
C96         O101   1.265       .  A
C96          O99   1.267       .  A
C96        C2248   1.488       .  S
Cd97        O104   2.462   1_565  S
Cd97        O103   2.466       .  S
Cd97        O102   2.477       .  S
Cd97         O98   2.539       .  S
Cd97        O101   2.495       .  S
Cd97         O99   2.460       .  S
C100        O104   1.266       .  A
C100       C2137   1.486       .  S
O105        C108   1.270       .  A
O105       Cd110   2.492       .  S
C106        O115   1.267       .  A
C106        O111   1.270       .  A
C106       C2101   1.480       .  S
O107        C113   1.273       .  A
O107       Cd110   2.522       .  S
C108        O116   1.265       .  A
C108       C2296   1.475       .  S
C109        O114   1.272       .  A
C109        O112   1.265       .  A
C109       C2113   1.488       .  S
Cd110       O117   2.426       .  S
Cd110       O116   2.383       .  S
Cd110       O115   2.423       .  S
Cd110       O111   2.452       .  S
Cd110       O114   2.525       .  S
Cd110       O112   2.420       .  S
C113        O117   1.262       .  A
C113       C2125   1.491       .  S
O118        C121   1.268       .  A
O118       Cd123   2.445       .  S
C119        O128   1.264       .  A
C119        O124   1.269       .  A
C119       C2332   1.476       .  S
O120        C126   1.272       .  A
O120       Cd123   2.532       .  S
C121        O129   1.268       .  A
C121       C2077   1.479       .  S
C122        O127   1.271       .  A
C122        O125   1.265       .  A
C122       C2116   1.487       .  S
Cd123       O130   2.422       .  S
Cd123       O129   2.433       .  S
Cd123       O128   2.398       .  S
Cd123       O124   2.498       .  S
Cd123       O127   2.519       .  S
Cd123       O125   2.423       .  S
C126        O130   1.263       .  A
C126       C2089   1.491       .  S
O131        C134   1.272       .  A
O131       Cd136   2.514       .  S
C132        O141   1.265       .  A
C132        O137   1.272       .  A
C132       C2053   1.483       .  S
O133        C139   1.269       .  A
O133       Cd136   2.488       .  S
C134        O142   1.264       .  A
C134       C2065   1.491       .  S
C135        O140   1.271       .  A
C135        O138   1.267       .  A
C135       C2080   1.478       .  S
Cd136       O143   2.401       .  S
Cd136       O142   2.433       .  S
Cd136       O141   2.413       .  S
Cd136       O137   2.505       .  S
Cd136       O140   2.450       .  S
Cd136       O138   2.403       .  S
C139        O143   1.265       .  A
C139       C2041   1.473       .  S
O144        C147   1.269       .  A
O144       Cd149   2.442       .  S
C145        O154   1.266       .  A
C145        O150   1.269       .  A
C145       C2005   1.471       .  S
O146        C152   1.274       .  A
O146       Cd149   2.520       .  S
C147        O155   1.268       .  A
C147       C2104   1.479       .  S
C148        O153   1.273       .  A
C148        O151   1.265       .  A
C148       C2017   1.486       .  S
Cd149       O156   2.402       .  S
Cd149       O155   2.424       .  S
Cd149       O154   2.411       .  S
Cd149       O150   2.463       .  S
Cd149       O153   2.514       .  S
Cd149       O151   2.402       .  S
C152        O156   1.262       .  A
C152       C2029   1.489       .  S
O157        C160   1.269       .  A
O157       Cd162   2.453       .  S
C158        O167   1.264       .  A
C158        O163   1.268       .  A
C158       C1984   1.473       .  S
O159        C165   1.271       .  A
O159       Cd162   2.520       .  S
C160        O168   1.267       .  A
C160       C1993   1.475       .  S
C161        O166   1.271       .  A
C161        O164   1.265       .  A
C161       C2056   1.484       .  S
Cd162       O169   2.421       .  S
Cd162       O168   2.399       .  S
Cd162       O167   2.397       .  S
Cd162       O163   2.471       .  S
Cd162       O166   2.503       .  S
Cd162       O164   2.413       .  S
C165        O169   1.263       .  A
C165       C2140   1.488       .  S
O170        C173   1.271       .  A
O170       Cd175   2.437       .  S
C171        O180   1.265       .  A
C171        O176   1.270       .  A
C171       C1969   1.465       .  S
O172        C178   1.273       .  A
O172       Cd175   2.514       .  S
C173        O181   1.268       .  A
C173       C1996   1.476       .  S
C174        O179   1.274       .  A
C174        O177   1.265       .  A
C174       C2149   1.492       .  S
Cd175       O182   2.414       .  S
Cd175       O181   2.395       .  S
Cd175       O180   2.370       .  S
Cd175       O176   2.464       .  S
Cd175       O179   2.515       .  S
Cd175       O177   2.420       .  S
C178        O182   1.265       .  A
C178       C2020   1.488       .  S
O183        C186   1.268       .  A
O183       Cd188   2.542       .  S
C184        O193   1.264       .  A
C184        O189   1.269       .  A
C184        C836   1.477       .  S
O185        C191   1.265       .  A
O185       Cd188   2.485   1_455  S
C186        O194   1.263       .  A
C186        C199   1.480       .  S
C187        O192   1.265       .  A
C187        O190   1.267       .  A
C187       C2032   1.487       .  S
Cd188       O195   2.460   1_655  S
Cd188       O194   2.469       .  S
Cd188       O193   2.456       .  S
Cd188       O189   2.525       .  S
Cd188       O192   2.480       .  S
Cd188       O190   2.466       .  S
C191        O195   1.265       .  A
C191       C1957   1.486       .  S
O196        C199   1.267       .  A
O196       Cd201   2.542       .  S
C197        O206   1.265       .  A
C197        O202   1.268       .  A
C197        C327   1.480       .  S
O198        C204   1.266       .  A
O198       Cd201   2.485       .  S
C199        O207   1.263       .  A
C200        O205   1.265       .  A
C200        O203   1.265       .  A
C200       C1945   1.486       .  S
Cd201       O208   2.456       .  S
Cd201       O207   2.473       .  S
Cd201       O206   2.470       .  S
Cd201       O202   2.526       .  S
Cd201       O205   2.496   1_655  S
Cd201       O203   2.451   1_655  S
C204        O208   1.266       .  A
C204       C2128   1.487       .  S
O209        C212   1.269       .  A
O209       Cd214   2.457       .  S
C210        O219   1.266       .  A
C210        O215   1.270       .  A
C210       C1909   1.474       .  S
O211        C217   1.272       .  A
O211       Cd214   2.511       .  S
C212        O220   1.267       .  A
C212       C1933   1.480       .  S
C213        O218   1.272       .  A
C213        O216   1.261       .  A
C213       C1960   1.489       .  S
Cd214       O221   2.410       .  S
Cd214       O220   2.422       .  S
Cd214       O219   2.399       .  S
Cd214       O215   2.466       .  S
Cd214       O218   2.525       .  S
Cd214       O216   2.410       .  S
C217        O221   1.264       .  A
C217       C1921   1.483       .  S
O222        C225   1.270       .  A
O222       Cd227   2.445       .  S
C223        O232   1.264       .  A
C223        O228   1.269       .  A
C223       C1876   1.473       .  S
O224        C230   1.272       .  A
O224       Cd227   2.528       .  S
C225        O233   1.268       .  A
C225       C1885   1.481       .  S
C226        O231   1.271       .  A
C226        O229   1.266       .  A
C226       C1924   1.481       .  S
Cd227       O234   2.422       .  S
Cd227       O233   2.436       .  S
Cd227       O232   2.403       .  S
Cd227       O228   2.484       .  S
Cd227       O231   2.496       .  S
Cd227       O229   2.426       .  S
C230        O234   1.263       .  A
C230       C1897   1.491       .  S
O235        C238   1.269       .  A
O235       Cd240   2.457       .  S
C236        O245   1.264       .  A
C236        O241   1.269       .  A
C236       C1981   1.474       .  S
O237        C243   1.270       .  A
O237       Cd240   2.508       .  S
C238        O246   1.267       .  A
C238       C1888   1.479       .  S
C239        O244   1.271       .  A
C239        O242   1.263       .  A
C239       C1864   1.490       .  S
Cd240       O247   2.426       .  S
Cd240       O246   2.421       .  S
Cd240       O245   2.391       .  S
Cd240       O241   2.495       .  S
Cd240       O244   2.520       .  S
Cd240       O242   2.426       .  S
C243        O247   1.265       .  A
C243       C1849   1.486       .  S
O248        C251   1.270       .  A
O248       Cd253   2.464       .  S
C249        O258   1.265       .  A
C249        O254   1.269       .  A
C249       C2044   1.473       .  S
O250        C256   1.273       .  A
O250       Cd253   2.530       .  S
C251        O259   1.267       .  A
C251       C1828   1.482       .  S
C252        O257   1.271       .  A
C252        O255   1.266       .  A
C252       C1852   1.483       .  S
Cd253       O260   2.397       .  S
Cd253       O259   2.413       .  S
Cd253       O258   2.400       .  S
Cd253       O254   2.486       .  S
Cd253       O257   2.507       .  S
Cd253       O255   2.415       .  S
C256        O260   1.261       .  A
C256       C1837   1.486       .  S
O261        C264   1.270       .  A
O261       Cd266   2.454       .  S
C262        O271   1.266       .  A
C262        O267   1.269       .  A
C262       C1801   1.474       .  S
O263        C269   1.272       .  A
O263       Cd266   2.515       .  S
C264        O272   1.266       .  A
C264       C1936   1.480       .  S
C265        O270   1.272       .  A
C265        O268   1.266       .  A
C265       C1813   1.477       .  S
Cd266       O273   2.380       .  S
Cd266       O272   2.414       .  S
Cd266       O271   2.411       .  S
Cd266       O267   2.468       .  S
Cd266       O270   2.486       .  S
Cd266       O268   2.384       .  S
C269        O273   1.262       .  A
C269       C1948   1.483       .  S
O274        C277   1.269       .  A
O274       Cd279   2.479       .  S
C275        O284   1.267       .  A
C275        O280   1.269       .  A
C275       C1825   1.482       .  S
O276        C282   1.272       .  A
O276       Cd279   2.520       .  S
C277        O285   1.266       .  A
C277       C1777   1.477       .  S
C278        O283   1.272       .  A
C278        O281   1.264       .  A
C278       C1816   1.480       .  S
Cd279       O286   2.386       .  S
Cd279       O285   2.404       .  S
Cd279       O284   2.424       .  S
Cd279       O280   2.466       .  S
Cd279       O283   2.507       .  S
Cd279       O281   2.396       .  S
C282        O286   1.263       .  A
C282       C1789   1.484       .  S
O287        C290   1.268       .  A
O287       Cd292   2.555       .  S
C288        O297   1.264       .  A
C288        O293   1.268       .  A
C288        C810   1.485       .  S
O289        C295   1.265       .  A
O289       Cd292   2.511       .  S
C290        O298   1.264       .  A
C290        C301   1.486       .  S
C291        O296   1.266       .  A
C291        O294   1.266       .  A
C291       C1900   1.492       .  S
Cd292       O299   2.463       .  S
Cd292       O298   2.481       .  S
Cd292       O297   2.487       .  S
Cd292       O293   2.546       .  S
Cd292       O296   2.510   1_565  S
Cd292       O294   2.453   1_565  S
C295        O299   1.266       .  A
C295       C1765   1.491       .  S
O300        C303   1.270       .  A
O300       Cd305   2.530       .  S
C301        O310   1.263       .  A
C301        O306   1.269       .  A
O302        C308   1.266       .  A
O302       Cd305   2.492       .  S
C303        O311   1.263       .  A
C304        O309   1.267       .  A
C304        O307   1.266       .  A
C304       C1861   1.491       .  S
Cd305       O312   2.467       .  S
Cd305       O311   2.457       .  S
Cd305       O310   2.478       .  S
Cd305       O306   2.557       .  S
Cd305       O309   2.500   1_565  S
Cd305       O307   2.463   1_565  S
C308        O312   1.266       .  A
C308       C1753   1.490       .  S
O313        C316   1.268       .  A
O313       Cd318   2.529       .  S
C314        O323   1.263       .  A
C314        O319   1.267   1_655  A
C314        C329   1.482       .  S
O315        C321   1.264       .  A
O315       Cd318   2.487   1_455  S
C316        O324   1.263   1_655  A
C316        C691   1.475       .  S
C317        O322   1.266       .  A
C317        O320   1.266       .  A
C317       C2212   1.489       .  S
Cd318       O325   2.473   1_655  S
Cd318       O324   2.454   1_655  S
Cd318       O323   2.475       .  S
Cd318       O319   2.545   1_655  S
Cd318       O322   2.500       .  S
Cd318       O320   2.455       .  S
C321        O325   1.266       .  A
C321       C1741   1.489       .  S
O326        C329   1.268       .  A
O326       Cd331   2.545       .  S
C327        O336   1.263       .  A
C327        O332   1.269       .  A
O328        C334   1.266       .  A
O328       Cd331   2.487   1_455  S
C329        O337   1.263       .  A
C330        O335   1.266       .  A
C330        O333   1.268       .  A
C330       C2320   1.488       .  S
Cd331       O338   2.429   1_655  S
Cd331       O337   2.471       .  S
Cd331       O336   2.469       .  S
Cd331       O332   2.538       .  S
Cd331       O335   2.474       .  S
Cd331       O333   2.461       .  S
C334        O338   1.265       .  A
C334       C1729   1.483       .  S
O339        C342   1.269       .  A
O339       Cd344   2.483       .  S
C340        O349   1.269       .  A
C340        O345   1.269       .  A
C340       C1693   1.478       .  S
O341        C347   1.274       .  A
O341       Cd344   2.529       .  S
C342        O350   1.265       .  A
C342       C2260   1.473       .  S
C343        O348   1.273       .  A
C343        O346   1.265       .  A
C343       C1705   1.484       .  S
Cd344       O351   2.394       .  S
Cd344       O350   2.390       .  S
Cd344       O349   2.432       .  S
Cd344       O345   2.435       .  S
Cd344       O348   2.511       .  S
Cd344       O346   2.410       .  S
C347        O351   1.263       .  A
C347       C1717   1.486       .  S
O352        C355   1.270       .  A
O352       Cd357   2.458       .  S
C353        O362   1.266       .  A
C353        O358   1.269       .  A
C353       C2221   1.476       .  S
O354        C360   1.274       .  A
O354       Cd357   2.528       .  S
C355        O363   1.269       .  A
C355       C1681   1.481       .  S
C356        O361   1.273       .  A
C356        O359   1.265       .  A
C356       C1708   1.485       .  S
Cd357       O364   2.403       .  S
Cd357       O363   2.410       .  S
Cd357       O362   2.402       .  S
Cd357       O358   2.473       .  S
Cd357       O361   2.523       .  S
Cd357       O359   2.398       .  S
C360        O364   1.264       .  A
C360       C1756   1.491       .  S
O365        C368   1.269       .  A
O365       Cd370   2.491       .  S
C366        O375   1.266       .  A
C366        O371   1.271       .  A
C366       C1684   1.483       .  S
O367        C373   1.273       .  A
O367       Cd370   2.530       .  S
C368        O376   1.265       .  A
C368       C1657   1.481       .  S
C369        O374   1.272       .  A
C369        O372   1.266       .  A
C369       C1669   1.484       .  S
Cd370       O377   2.403       .  S
Cd370       O376   2.426       .  S
Cd370       O375   2.411       .  S
Cd370       O371   2.477       .  S
Cd370       O374   2.511       .  S
Cd370       O372   2.397       .  S
C373        O377   1.262       .  A
C373       C1768   1.490       .  S
O378        C381   1.270       .  A
O378       Cd383   2.459       .  S
C379        O388   1.265       .  A
C379        O384   1.270       .  A
C379       C1780   1.477       .  S
O380        C386   1.272       .  A
O380       Cd383   2.531       .  S
C381        O389   1.266       .  A
C381       C1696   1.479       .  S
C382        O387   1.272       .  A
C382        O385   1.265       .  A
C382       C1636   1.480       .  S
Cd383       O390   2.404       .  S
Cd383       O389   2.424       .  S
Cd383       O388   2.394       .  S
Cd383       O384   2.490       .  S
Cd383       O387   2.504       .  S
Cd383       O385   2.400       .  S
C386        O390   1.263       .  A
C386       C1645   1.489       .  S
O391        C394   1.271       .  A
O391       Cd396   2.441       .  S
C392        O401   1.267       .  A
C392        O397   1.269       .  A
C392       C1609   1.473       .  S
O393        C399   1.276       .  A
O393       Cd396   2.524       .  S
C394        O402   1.268       .  A
C394       C1621   1.476       .  S
C395        O400   1.274       .  A
C395        O398   1.265       .  A
C395       C1672   1.482       .  S
Cd396       O403   2.386       .  S
Cd396       O402   2.401       .  S
Cd396       O401   2.401       .  S
Cd396       O397   2.457       .  S
Cd396       O400   2.511       .  S
Cd396       O398   2.393       .  S
C399        O403   1.263       .  A
C399       C1744   1.490       .  S
O404        C407   1.269       .  A
O404       Cd409   2.453       .  S
C405        O414   1.265       .  A
C405        O410   1.269       .  A
C405       C1804   1.474       .  S
O406        C412   1.273       .  A
O406       Cd409   2.509       .  S
C407        O415   1.267       .  A
C407       C1624   1.477       .  S
C408        O413   1.272       .  A
C408        O411   1.264       .  A
C408       C1732   1.486       .  S
Cd409       O416   2.374       .  S
Cd409       O415   2.416       .  S
Cd409       O414   2.403       .  S
Cd409       O410   2.472       .  S
Cd409       O413   2.512       .  S
Cd409       O411   2.400       .  S
C412        O416   1.264       .  A
C412       C1633   1.477       .  S
O417        C420   1.268       .  A
O417       Cd422   2.538       .  S
C418        O427   1.265       .  A
C418        O423   1.269       .  A
C418        C795   1.483       .  S
O419        C425   1.267       .  A
O419       Cd422   2.505       .  S
C420        O428   1.263   1_556  A
C420        C433   1.480       .  S
C421        O426   1.267       .  A
C421        O424   1.265       .  A
C421       C1597   1.490       .  S
Cd422       O429   2.456       .  S
Cd422       O428   2.471   1_556  S
Cd422       O427   2.473       .  S
Cd422       O423   2.535       .  S
Cd422       O426   2.505   1_556  S
Cd422       O424   2.461   1_556  S
C425        O429   1.265       .  A
C425       C2068   1.490       .  S
O430        C433   1.268       .  A
O430       Cd435   2.536       .  S
C431        O440   1.263       .  A
C431        O436   1.268   1_556  A
C431        C537   1.478       .  S
O432        C438   1.265       .  A
O432       Cd435   2.493   1_554  S
C433        O441   1.263       .  A
C434        O439   1.266       .  A
C434        O437   1.266       .  A
C434       C2092   1.489       .  S
Cd435       O442   2.453   1_556  S
Cd435       O441   2.468       .  S
Cd435       O440   2.459       .  S
Cd435       O436   2.533   1_556  S
Cd435       O439   2.494       .  S
Cd435       O437   2.454       .  S
C438        O442   1.265       .  A
C438       C1585   1.487       .  S
O443        C446   1.273       .  A
O443       Cd448   2.462       .  S
C444        O453   1.265       .  A
C444        O449   1.271       .  A
C444       C1549   1.477       .  S
O445        C451   1.273       .  A
O445       Cd448   2.497       .  S
C446        O454   1.267       .  A
C446       C1573   1.485       .  S
C447        O452   1.273       .  A
C447        O450   1.266       .  A
C447       C1561   1.479       .  S
Cd448       O455   2.412       .  S
Cd448       O454   2.428       .  S
Cd448       O453   2.416       .  S
Cd448       O449   2.480       .  S
Cd448       O452   2.492       .  S
Cd448       O450   2.395       .  S
C451        O455   1.265       .  A
C451       C1600   1.486       .  S
O456        C459   1.268       .  A
O456       Cd461   2.468       .  S
C457        O466   1.268       .  A
C457        O462   1.270       .  A
C457       C1525   1.480       .  S
O458        C464   1.274       .  A
O458       Cd461   2.544       .  S
C459        O467   1.265       .  A
C459       C1513   1.471       .  S
C460        O465   1.272       .  A
C460        O463   1.265       .  A
C460       C1564   1.487       .  S
Cd461       O468   2.410       .  S
Cd461       O467   2.417       .  S
Cd461       O466   2.420       .  S
Cd461       O462   2.456       .  S
Cd461       O465   2.516       .  S
Cd461       O463   2.420       .  S
C464        O468   1.261       .  A
C464       C1537   1.494       .  S
O469        C472   1.269       .  A
O469       Cd474   2.506       .  S
C470        O479   1.268       .  A
C470        O475   1.270       .  A
C470       C1576   1.487       .  S
O471        C477   1.272       .  A
O471       Cd474   2.512       .  S
C472        O480   1.264       .  A
C472       C1489   1.480       .  S
C473        O478   1.270       .  A
C473        O476   1.266       .  A
C473       C1501   1.480       .  S
Cd474       O481   2.386       .  S
Cd474       O480   2.426       .  S
Cd474       O479   2.453       .  S
Cd474       O475   2.461       .  S
Cd474       O478   2.498       .  S
Cd474       O476   2.416       .  S
C477        O481   1.263       .  A
C477       C1588   1.483       .  S
O482        C485   1.271       .  A
O482       Cd487   2.455       .  S
C483        O492   1.265       .  A
C483        O488   1.269       .  A
C483       C1456   1.475       .  S
O484        C490   1.274       .  A
O484       Cd487   2.522       .  S
C485        O493   1.268       .  A
C485       C1465   1.482       .  S
C486        O491   1.272       .  A
C486        O489   1.265       .  A
C486       C1504   1.486       .  S
Cd487       O494   2.415       .  S
Cd487       O493   2.424       .  S
Cd487       O492   2.414       .  S
Cd487       O488   2.468       .  S
Cd487       O491   2.516       .  S
Cd487       O489   2.417       .  S
C490        O494   1.262       .  A
C490       C1477   1.491       .  S
O495        C498   1.269       .  A
O495       Cd500   2.466       .  S
C496        O505   1.265       .  A
C496        O501   1.269       .  A
C496       C1972   1.471       .  S
O497        C503   1.273       .  A
O497       Cd500   2.533       .  S
C498        O506   1.268       .  A
C498       C1528   1.480       .  S
C499        O504   1.272       .  A
C499        O502   1.266       .  A
C499       C1429   1.487       .  S
Cd500       O507   2.406       .  S
Cd500       O506   2.422       .  S
Cd500       O505   2.398       .  S
Cd500       O501   2.466       .  S
Cd500       O504   2.515       .  S
Cd500       O502   2.422       .  S
C503        O507   1.261       .  A
C503       C1444   1.490       .  S
O508        C511   1.270       .  A
O508       Cd513   2.466       .  S
C509        O518   1.265       .  A
C509        O514   1.270       .  A
C509       C2008   1.472       .  S
O510        C516   1.272       .  A
O510       Cd513   2.517       .  S
C511        O519   1.268       .  A
C511       C1468   1.484       .  S
C512        O517   1.273       .  A
C512        O515   1.263       .  A
C512       C1417   1.492       .  S
Cd513       O520   2.415       .  S
Cd513       O519   2.427       .  S
Cd513       O518   2.407       .  S
Cd513       O514   2.481       .  S
Cd513       O517   2.531       .  S
Cd513       O515   2.416       .  S
C516        O520   1.265       .  A
C516       C1432   1.488       .  S
O521        C524   1.267       .  A
O521       Cd526   2.544       .  S
C522        O531   1.264       .  A
C522        O527   1.269   1_556  A
C522        C667   1.481       .  S
O523        C529   1.264       .  A
O523       Cd526   2.468   1_554  S
C524        O532   1.262   1_556  A
C524        C535   1.482       .  S
C525        O530   1.264       .  A
C525        O528   1.267       .  A
C525       C2284   1.486       .  S
Cd526       O533   2.463   1_556  S
Cd526       O532   2.484   1_556  S
Cd526       O531   2.460       .  S
Cd526       O527   2.546   1_556  S
Cd526       O530   2.498       .  S
Cd526       O528   2.443       .  S
C529        O533   1.266       .  A
C529       C1405   1.483       .  S
O534        C537   1.269       .  A
O534       Cd539   2.530       .  S
C535        O544   1.263   1_556  A
C535        O540   1.267       .  A
O536        C542   1.267       .  A
O536       Cd539   2.495   1_554  S
C537        O545   1.264       .  A
C538        O543   1.266       .  A
C538        O541   1.266       .  A
C538       C2368   1.487       .  S
Cd539       O546   2.456   1_556  S
Cd539       O545   2.457       .  S
Cd539       O544   2.477   1_556  S
Cd539       O540   2.538       .  S
Cd539       O543   2.498       .  S
Cd539       O541   2.458       .  S
C542        O546   1.266       .  A
C542       C1393   1.485       .  S
O547        C550   1.269       .  A
O547       Cd552   2.550       .  S
C548        O557   1.263       .  A
C548        O553   1.268       .  A
C548        C561   1.483       .  S
O549        C555   1.266       .  A
O549       Cd552   2.500       .  S
C550        O558   1.264       .  A
C550        C823   1.485       .  S
C551        O556   1.266       .  A
C551        O554   1.267       .  A
C551       C1540   1.490       .  S
Cd552       O559   2.476       .  S
Cd552       O558   2.479       .  S
Cd552       O557   2.484       .  S
Cd552       O553   2.546       .  S
Cd552       O556   2.500   1_565  S
Cd552       O554   2.460   1_565  S
C555        O559   1.266       .  A
C555       C1384   1.492       .  S
O560        C563   1.269       .  A
O560       Cd565   2.537       .  S
C561        O570   1.263       .  A
C561        O566   1.267       .  A
O562        C568   1.265       .  A
O562       Cd565   2.490   1_545  S
C563        O571   1.264   1_565  A
C564        O569   1.265       .  A
C564        O567   1.265       .  A
C564       C1369   1.487       .  S
Cd565       O572   2.465   1_565  S
Cd565       O571   2.464   1_565  S
Cd565       O570   2.482       .  S
Cd565       O566   2.542       .  S
Cd565       O569   2.498       .  S
Cd565       O567   2.469       .  S
C568        O572   1.266       .  A
C568       C1441   1.488       .  S
O573        C576   1.268       .  A
O573       Cd578   2.480       .  S
C574        O583   1.266       .  A
C574        O579   1.269       .  A
C574       C1345   1.485       .  S
O575        C581   1.270       .  A
O575       Cd578   2.518       .  S
C576        O584   1.265       .  A
C576       C2164   1.474       .  S
C577        O582   1.270       .  A
C577        O580   1.265       .  A
C577       C1357   1.488       .  S
Cd578       O585   2.443       .  S
Cd578       O584   2.425       .  S
Cd578       O583   2.438       .  S
Cd578       O579   2.476       .  S
Cd578       O582   2.516       .  S
Cd578       O580   2.430       .  S
C581        O585   1.263       .  A
C581       C1372   1.487       .  S
O586        C589   1.269       .  A
O586       Cd591   2.468       .  S
C587        O596   1.265       .  A
C587        O592   1.268       .  A
C587       C2188   1.469       .  S
O588        C594   1.272       .  A
O588       Cd591   2.527       .  S
C589        O597   1.267       .  A
C589       C1321   1.481       .  S
C590        O595   1.271       .  A
C590        O593   1.266       .  A
C590       C1360   1.483       .  S
Cd591       O598   2.392       .  S
Cd591       O597   2.406       .  S
Cd591       O596   2.400       .  S
Cd591       O592   2.468       .  S
Cd591       O595   2.502       .  S
Cd591       O593   2.421       .  S
C594        O598   1.261       .  A
C594       C1333   1.486       .  S
O599        C602   1.269       .  A
O599       Cd604   2.468       .  S
C600        O609   1.264       .  A
C600        O605   1.269       .  A
C600       C1297   1.475       .  S
O601        C607   1.271       .  A
O601       Cd604   2.515       .  S
C602        O610   1.267       .  A
C602       C1348   1.484       .  S
C603        O608   1.271       .  A
C603        O606   1.265       .  A
C603       C1309   1.482       .  S
Cd604       O611   2.420       .  S
Cd604       O610   2.437       .  S
Cd604       O609   2.415       .  S
Cd604       O605   2.480       .  S
Cd604       O608   2.509       .  S
Cd604       O606   2.407       .  S
C607        O611   1.263       .  A
C607       C1381   1.489       .  S
O612        C615   1.270       .  A
O612       Cd617   2.452       .  S
C613        O622   1.267       .  A
C613        O618   1.270       .  A
C613       C1324   1.480       .  S
O614        C620   1.273       .  A
O614       Cd617   2.511       .  S
C615        O623   1.267       .  A
C615       C1453   1.473       .  S
C616        O621   1.273       .  A
C616        O619   1.265       .  A
C616       C1273   1.488       .  S
Cd617       O624   2.410       .  S
Cd617       O623   2.412       .  S
Cd617       O622   2.392       .  S
Cd617       O618   2.482       .  S
Cd617       O621   2.514       .  S
Cd617       O619   2.396       .  S
C620        O624   1.264       .  A
C620       C1285   1.488       .  S
O625        C628   1.268       .  A
O625       Cd630   2.459       .  S
C626        O635   1.266       .  A
C626        O631   1.268       .  A
C626       C1249   1.476       .  S
O627        C633   1.271       .  A
O627       Cd630   2.516       .  S
C628        O636   1.268       .  A
C628       C1261   1.485       .  S
C629        O634   1.272       .  A
C629        O632   1.261       .  A
C629       C1408   1.485       .  S
Cd630       O637   2.406       .  S
Cd630       O636   2.447       .  S
Cd630       O635   2.421       .  S
Cd630       O631   2.471       .  S
Cd630       O634   2.523       .  S
Cd630       O632   2.392       .  S
C633        O637   1.265       .  A
C633       C1312   1.482       .  S
O638        C641   1.273       .  A
O638       Cd643   2.463       .  S
C639        O648   1.266       .  A
C639        O644   1.271       .  A
C639       C1492   1.480       .  S
O640        C646   1.276       .  A
O640       Cd643   2.522       .  S
C641        O649   1.268       .  A
C641       C1264   1.486       .  S
C642        O647   1.274       .  A
C642        O645   1.267       .  A
C642       C1276   1.491       .  S
Cd643       O650   2.392       .  S
Cd643       O649   2.430       .  S
Cd643       O648   2.422       .  S
Cd643       O644   2.492       .  S
Cd643       O647   2.520       .  S
Cd643       O645   2.410       .  S
C646        O650   1.264       .  A
C646       C1396   1.488       .  S
O651        C654   1.266       .  A
O651       Cd656   2.535       .  S
C652        O661   1.265       .  A
C652        O657   1.268   1_556  A
C652        C784   1.478       .  S
O653        C659   1.266       .  A
O653       Cd656   2.495   1_554  S
C654        O662   1.263   1_556  A
C654        C665   1.480       .  S
C655        O660   1.265       .  A
C655        O658   1.265       .  A
C655       C1648   1.493       .  S
Cd656       O663   2.461   1_556  S
Cd656       O662   2.478   1_556  S
Cd656       O661   2.459       .  S
Cd656       O657   2.527   1_556  S
Cd656       O660   2.517       .  S
Cd656       O658   2.471       .  S
C659        O663   1.265       .  A
C659       C1237   1.487       .  S
O664        C667   1.269   1_554  A
O664       Cd669   2.553   1_554  S
C665        O674   1.262   1_556  A
C665        O670   1.269       .  A
O666        C672   1.264       .  A
O666       Cd669   2.468   1_554  S
C667        O675   1.262       .  A
C668        O673   1.266       .  A
C668        O671   1.267       .  A
C668       C1720   1.486       .  S
Cd669       O676   2.448   1_556  S
Cd669       O675   2.459       .  S
Cd669       O674   2.467   1_556  S
Cd669       O670   2.540       .  S
Cd669       O673   2.489       .  S
Cd669       O671   2.442       .  S
C672        O676   1.267       .  A
C672       C1225   1.482       .  S
O677        C680   1.268       .  A
O677       Cd682   2.541       .  S
C678        O687   1.264       .  A
C678        O683   1.269       .  A
C678        C849   1.484       .  S
O679        C685   1.266       .  A
O679       Cd682   2.496       .  S
C680        O688   1.263       .  A
C680        C693   1.483       .  S
C681        O686   1.266       .  A
C681        O684   1.266       .  A
C681       C1213   1.486       .  S
Cd682       O689   2.457       .  S
Cd682       O688   2.486       .  S
Cd682       O687   2.476       .  S
Cd682       O683   2.543       .  S
Cd682       O686   2.510   1_655  S
Cd682       O684   2.447   1_655  S
C685        O689   1.265       .  A
C685       C1288   1.489       .  S
O690        C693   1.268       .  A
O690       Cd695   2.536       .  S
C691        O700   1.263   1_655  A
C691        O696   1.268       .  A
O692        C698   1.267       .  A
O692       Cd695   2.487   1_455  S
C693        O701   1.264       .  A
C694        O699   1.265       .  A
C694        O697   1.266       .  A
C694       C1336   1.485       .  S
Cd695       O702   2.448   1_655  S
Cd695       O701   2.484       .  S
Cd695       O700   2.450   1_655  S
Cd695       O696   2.528       .  S
Cd695       O699   2.492       .  S
Cd695       O697   2.445       .  S
C698        O702   1.266       .  A
C698       C1201   1.487       .  S
O703        C706   1.270       .  A
O703       Cd708   2.468       .  S
C704        O713   1.265       .  A
C704        O709   1.271       .  A
C704       C1165   1.478       .  S
O705        C711   1.271       .  A
O705       Cd708   2.518       .  S
C706        O714   1.267       .  A
C706       C1189   1.483       .  S
C707        O712   1.272       .  A
C707        O710   1.263       .  A
C707       C1240   1.485       .  S
Cd708       O715   2.414       .  S
Cd708       O714   2.437       .  S
Cd708       O713   2.402       .  S
Cd708       O709   2.487       .  S
Cd708       O712   2.509       .  S
Cd708       O710   2.426       .  S
C711        O715   1.264       .  A
C711       C1180   1.485       .  S
O716        C719   1.270       .  A
O716       Cd721   2.472       .  S
C717        O726   1.264       .  A
C717        O722   1.270       .  A
C717       C1141   1.475       .  S
O718        C724   1.271       .  A
O718       Cd721   2.515       .  S
C719        O727   1.266       .  A
C719       C1153   1.480       .  S
C720        O725   1.271       .  A
C720        O723   1.266       .  A
C720       C1177   1.482       .  S
Cd721       O728   2.403       .  S
Cd721       O727   2.401       .  S
Cd721       O726   2.399       .  S
Cd721       O722   2.492       .  S
Cd721       O725   2.495       .  S
Cd721       O723   2.416       .  S
C724        O728   1.262       .  A
C724       C1216   1.488       .  S
O729        C732   1.271       .  A
O729       Cd734   2.460       .  S
C730        O739   1.264       .  A
C730        O735   1.272       .  A
C730       C1252   1.476       .  S
O731        C737   1.274       .  A
O731       Cd734   2.508       .  S
C732        O740   1.268       .  A
C732       C1192   1.484       .  S
C733        O738   1.273       .  A
C733        O736   1.267       .  A
C733       C1129   1.480       .  S
Cd734       O741   2.388       .  S
Cd734       O740   2.438       .  S
Cd734       O739   2.394       .  S
Cd734       O735   2.489       .  S
Cd734       O738   2.495       .  S
Cd734       O736   2.406       .  S
C737        O741   1.263       .  A
C737       C1228   1.484       .  S
O742        C745   1.270       .  A
O742       Cd747   2.478       .  S
C743        O752   1.265       .  A
C743        O748   1.270       .  A
C743       C1300   1.476       .  S
O744        C750   1.272       .  A
O744       Cd747   2.507       .  S
C745        O753   1.267       .  A
C745       C1105   1.486       .  S
C746        O751   1.272       .  A
C746        O749   1.264       .  A
C746       C1117   1.488       .  S
Cd747       O754   2.400       .  S
Cd747       O753   2.432       .  S
Cd747       O752   2.397       .  S
Cd747       O748   2.484       .  S
Cd747       O751   2.522       .  S
Cd747       O749   2.404       .  S
C750        O754   1.265       .  A
C750       C1132   1.482       .  S
O755        C758   1.271       .  A
O755       Cd760   2.517       .  S
C756        O765   1.263       .  A
C756        O761   1.273       .  A
C756       C1204   1.487       .  S
O757        C763   1.271       .  A
O757       Cd760   2.463       .  S
C758        O766   1.265       .  A
C758       C1093   1.484       .  S
C759        O764   1.270       .  A
C759        O762   1.264       .  A
C759       C1612   1.475       .  S
Cd760       O767   2.413       .  S
Cd760       O766   2.422       .  S
Cd760       O765   2.390       .  S
Cd760       O761   2.522       .  S
Cd760       O764   2.501       .  S
Cd760       O762   2.388       .  S
C763        O767   1.267       .  A
C763       C1156   1.482       .  S
O768        C771   1.271       .  A
O768       Cd773   2.489       .  S
C769        O778   1.265       .  A
C769        O774   1.270       .  A
C769       C1660   1.479       .  S
O770        C776   1.273       .  A
O770       Cd773   2.522       .  S
C771        O779   1.267       .  A
C771       C1108   1.486       .  S
C772        O777   1.271       .  A
C772        O775   1.266       .  A
C772       C1096   1.488       .  S
Cd773       O780   2.411       .  S
Cd773       O779   2.424       .  S
Cd773       O778   2.406       .  S
Cd773       O774   2.495       .  S
Cd773       O777   2.519       .  S
Cd773       O775   2.434       .  S
C776        O780   1.262       .  A
C776       C1081   1.487       .  S
O781        C784   1.270   1_554  A
O781       Cd786   2.535   1_554  S
C782        O791   1.262   1_556  A
C782        O787   1.268       .  A
C782        C797   1.483       .  S
O783        C789   1.264       .  A
O783       Cd786   2.478   1_554  S
C784        O792   1.263       .  A
C785        O790   1.264       .  A
C785        O788   1.266       .  A
C785       C1792   1.484       .  S
Cd786       O793   2.467   1_556  S
Cd786       O792   2.456       .  S
Cd786       O791   2.464   1_556  S
Cd786       O787   2.560       .  S
Cd786       O790   2.477       .  S
Cd786       O788   2.458       .  S
C789        O793   1.267       .  A
C789       C1069   1.484       .  S
O794        C797   1.269       .  A
O794       Cd799   2.562       .  S
C795        O804   1.263       .  A
C795        O800   1.269       .  A
O796        C802   1.265       .  A
O796       Cd799   2.500   1_554  S
C797        O805   1.262       .  A
C798        O803   1.264       .  A
C798        O801   1.267       .  A
C798       C1840   1.488       .  S
Cd799       O806   2.473   1_556  S
Cd799       O805   2.463       .  S
Cd799       O804   2.479       .  S
Cd799       O800   2.547       .  S
Cd799       O803   2.478       .  S
Cd799       O801   2.480       .  S
C802        O806   1.267       .  A
C802       C1057   1.493       .  S
O807        C810   1.269       .  A
O807       Cd812   2.547       .  S
C808        O817   1.264       .  A
C808        O813   1.269       .  A
C808        C821   1.484       .  S
O809        C815   1.265       .  A
O809       Cd812   2.472       .  S
C810        O818   1.263       .  A
C811        O816   1.266       .  A
C811        O814   1.265       .  A
C811       C1045   1.486       .  S
Cd812       O819   2.465       .  S
Cd812       O818   2.481       .  S
Cd812       O817   2.483       .  S
Cd812       O813   2.536       .  S
Cd812       O816   2.496   1_565  S
Cd812       O814   2.435   1_565  S
C815        O819   1.268       .  A
C815       C1084   1.484       .  S
O820        C823   1.270       .  A
O820       Cd825   2.546       .  S
C821        O830   1.263       .  A
C821        O826   1.268       .  A
O822        C828   1.265       .  A
O822       Cd825   2.481   1_545  S
C823        O831   1.264       .  A
C824        O829   1.265       .  A
C824        O827   1.265       .  A
C824       C1120   1.488       .  S
Cd825       O832   2.459   1_565  S
Cd825       O831   2.473       .  S
Cd825       O830   2.491       .  S
Cd825       O826   2.546       .  S
Cd825       O829   2.496       .  S
Cd825       O827   2.454       .  S
C828        O832   1.267       .  A
C828       C1033   1.486       .  S
O833        C836   1.268       .  A
O833       Cd838   2.526       .  S
C834        O843   1.264       .  A
C834        O839   1.267       .  A
C834        C847   1.480       .  S
O835        C841   1.266       .  A
O835       Cd838   2.495   1_455  S
C836        O844   1.264       .  A
C837        O842   1.267       .  A
C837        O840   1.266       .  A
C837       C1420   1.491       .  S
Cd838       O845   2.486   1_655  S
Cd838       O844   2.459       .  S
Cd838       O843   2.467       .  S
Cd838       O839   2.540       .  S
Cd838       O842   2.513       .  S
Cd838       O840   2.454       .  S
C841        O845   1.266       .  A
C841       C1021   1.493       .  S
O846        C849   1.269       .  A
O846       Cd851   2.549       .  S
C847        O856   1.263       .  A
C847        O852   1.269       .  A
O848        C854   1.265       .  A
O848       Cd851   2.482       .  S
C849        O857   1.263       .  A
C850        O855   1.266       .  A
C850        O853   1.267       .  A
C850       C1009   1.490       .  S
Cd851       O858   2.481       .  S
Cd851       O857   2.476       .  S
Cd851       O856   2.460       .  S
Cd851       O852   2.543       .  S
Cd851       O855   2.487   1_655  S
Cd851       O853   2.466   1_655  S
C854        O858   1.266       .  A
C854       C1480   1.488       .  S
O859        C862   1.268       .  A
O859       Cd864   2.453       .  S
C860        O869   1.265       .  A
C860        O865   1.269       .  A
C860       C1552   1.476       .  S
O861        C867   1.274       .  A
O861       Cd864   2.535       .  S
C862        O870   1.269       .  A
C862        C985   1.480       .  S
C863        O868   1.274       .  A
C863        O866   1.262       .  A
C863       C1060   1.497       .  S
Cd864       O871   2.417       .  S
Cd864       O870   2.439       .  S
Cd864       O869   2.412       .  S
Cd864       O865   2.474       .  S
Cd864       O868   2.556       .  S
Cd864       O866   2.420       .  S
C867        O871   1.265       .  A
C867       C1000   1.491       .  S
O872        C875   1.268       .  A
O872       Cd877   2.451       .  S
C873        O882   1.265       .  A
C873        O878   1.268       .  A
C873       C1516   1.470       .  S
O874        C880   1.274       .  A
O874       Cd877   2.534       .  S
C875        O883   1.268       .  A
C875        C973   1.475       .  S
C876        O881   1.272       .  A
C876        O879   1.265       .  A
C876        C997   1.486       .  S
Cd877       O884   2.386       .  S
Cd877       O883   2.424       .  S
Cd877       O882   2.398       .  S
Cd877       O878   2.464       .  S
Cd877       O881   2.520       .  S
Cd877       O879   2.414       .  S
C880        O884   1.262       .  A
C880       C1036   1.487       .  S
O885        C888   1.270       .  A
O885       Cd890   2.469       .  S
C886        O895   1.266       .  A
C886        O891   1.269       .  A
C886       C1168   1.476       .  S
O887        C893   1.272       .  A
O887       Cd890   2.526       .  S
C888        O896   1.266       .  A
C888        C988   1.479       .  S
C889        O894   1.272       .  A
C889        O892   1.264       .  A
C889        C961   1.482       .  S
Cd890       O897   2.414       .  S
Cd890       O896   2.419       .  S
Cd890       O895   2.405       .  S
Cd890       O891   2.476       .  S
Cd890       O894   2.522       .  S
Cd890       O892   2.406       .  S
C893        O897   1.263       .  A
C893       C1072   1.487       .  S
O898        C901   1.268       .  A
O898       Cd903   2.478       .  S
C899        O908   1.267       .  A
C899        O904   1.269       .  A
C899        C949   1.477       .  S
O900        C906   1.271       .  A
O900       Cd903   2.527       .  S
C901        O909   1.265       .  A
C901       C1144   1.474       .  S
C902        O907   1.271       .  A
C902        O905   1.264       .  A
C902        C964   1.484       .  S
Cd903       O910   2.414       .  S
Cd903       O909   2.404       .  S
Cd903       O908   2.416       .  S
Cd903       O904   2.449       .  S
Cd903       O907   2.506       .  S
Cd903       O905   2.415       .  S
C906        O910   1.262       .  A
C906       C1012   1.488       .  S
O911        C914   1.269       .  A
O911       Cd916   2.444       .  S
C912        O921   1.265       .  A
C912        O917   1.268       .  A
C912       C1873   1.474       .  S
O913        C919   1.273       .  A
O913       Cd916   2.518       .  S
C914        O922   1.268       .  A
C914        C976   1.476       .  S
C915        O920   1.273       .  A
C915        O918   1.262       .  A
C915       C1048   1.485       .  S
Cd916       O923   2.394       .  S
Cd916       O922   2.420       .  S
Cd916       O921   2.408       .  S
Cd916       O917   2.466       .  S
Cd916       O920   2.527       .  S
Cd916       O918   2.394       .  S
C919        O923   1.265       .  A
C919        C937   1.487       .  S
O924        C927   1.273       .  A
O924       Cd929   2.509       .  S
C925        O934   1.263       .  A
C925        O930   1.273       .  A
C925       C1024   1.493       .  S
O926        C932   1.271       .  A
O926       Cd929   2.481       .  S
C927        O935   1.266       .  A
C927        C940   1.487       .  S
C928        O933   1.271       .  A
C928        O931   1.267       .  A
C928        C952   1.479       .  S
Cd929       O936   2.390       .  S
Cd929       O935   2.421       .  S
Cd929       O934   2.428       .  S
Cd929       O930   2.517       .  S
Cd929       O933   2.467       .  S
Cd929       O931   2.404       .  S
C932        O936   1.265       .  A
C932       C1912   1.474       .  S
C937        C938   1.405       .  A
C937        C942   1.412       .  A
C938        C939   1.395       .  A
C938        H943   1.084       .  S
C939        C940   1.410       .  A
C939        O944   1.372       .  S
C940        C941   1.408       .  A
C941        C942   1.409       .  A
C941        H945   1.083       .  S
C942        O946   1.371       .  S
O944        H948   0.992       .  S
O946        H947   0.991       .  S
C949        C950   1.405       .  A
C949        C954   1.409       .  A
C950        C951   1.400       .  A
C950        H955   1.083       .  S
C951        C952   1.410       .  A
C951        O956   1.371       .  S
C952        C953   1.405       .  A
C953        C954   1.395       .  A
C953        H957   1.084       .  S
C954        O958   1.372       .  S
O956        H960   0.990       .  S
O958        H959   0.994       .  S
C961        C962   1.403       .  A
C961        C966   1.411       .  A
C962        C963   1.396       .  A
C962        H967   1.084       .  S
C963        C964   1.410       .  A
C963        O968   1.372       .  S
C964        C965   1.407       .  A
C965        C966   1.408       .  A
C965        H969   1.083       .  S
C966        O970   1.371       .  S
O968        H972   0.992       .  S
O970        H971   0.993       .  S
C973        C974   1.404       .  A
C973        C978   1.408       .  A
C974        C975   1.400       .  A
C974        H979   1.084       .  S
C975        C976   1.411       .  A
C975        O980   1.372       .  S
C976        C977   1.404       .  A
C977        C978   1.395       .  A
C977        H981   1.084       .  S
C978        O982   1.372       .  S
O980        H984   0.991       .  S
O982        H983   0.992       .  S
C985        C986   1.403       .  A
C985        C990   1.412       .  A
C986        C987   1.397       .  A
C986        H991   1.084       .  S
C987        C988   1.410       .  A
C987        O992   1.372       .  S
C988        C989   1.404       .  A
C989        C990   1.401       .  A
C989        H993   1.083       .  S
C990        O994   1.371       .  S
O992        H996   0.993       .  S
O994        H995   0.993       .  S
C997        C998   1.403       .  A
C997       C1002   1.412       .  A
C998        C999   1.398       .  A
C998       H1003   1.084       .  S
C999       C1000   1.412       .  A
C999       O1004   1.372       .  S
C1000      C1001   1.409       .  A
C1001      C1002   1.411       .  A
C1001      H1005   1.083       .  S
C1002      O1006   1.371       .  S
O1004      H1008   0.993       .  S
O1006      H1007   0.991       .  S
C1009      C1010   1.410       .  A
C1009      C1014   1.410       .  A
C1010      C1011   1.407       .  A
C1010      H1015   1.083       .  S
C1011      C1012   1.410       .  A
C1011      O1016   1.371       .  S
C1012      C1013   1.407       .  A
C1013      C1014   1.397       .  A
C1013      H1017   1.083       .  S
C1014      O1018   1.372       .  S
O1016      H1020   0.992       .  S
O1018      H1019   0.993       .  S
C1021      C1022   1.404       .  A
C1021      C1026   1.414       .  A
C1022      C1023   1.401       .  A
C1022      H1027   1.084       .  S
C1023      C1024   1.416       .  A
C1023      O1028   1.372       .  S
C1024      C1025   1.405       .  A
C1025      C1026   1.406       .  A
C1025      H1029   1.083       .  S
C1026      O1030   1.371       .  S
O1028      H1032   0.993       .  S
O1030      H1031   0.992       .  S
C1033      C1034   1.409       .  A
C1033      C1038   1.409       .  A
C1034      C1035   1.407       .  A
C1034      H1039   1.083       .  S
C1035      C1036   1.409       .  A
C1035      O1040   1.371       .  S
C1036      C1037   1.407       .  A
C1037      C1038   1.395       .  A
C1037      H1041   1.083       .  S
C1038      O1042   1.372       .  S
O1040      H1044   0.991       .  S
O1042      H1043   0.993       .  S
C1045      C1046   1.409       .  A
C1045      C1050   1.410       .  A
C1046      C1047   1.407       .  A
C1046      H1051   1.083       .  S
C1047      C1048   1.409       .  A
C1047      O1052   1.371       .  S
C1048      C1049   1.406       .  A
C1049      C1050   1.394       .  A
C1049      H1053   1.084       .  S
C1050      O1054   1.372       .  S
O1052      H1056   0.992       .  S
O1054      H1055   0.993       .  S
C1057      C1058   1.402       .  A
C1057      C1062   1.416       .  A
C1058      C1059   1.399       .  A
C1058      H1063   1.084       .  S
C1059      C1060   1.416       .  A
C1059      O1064   1.372       .  S
C1060      C1061   1.407       .  A
C1061      C1062   1.411       .  A
C1061      H1065   1.083       .  S
C1062      O1066   1.371       .  S
O1064      H1068   0.991       .  S
O1066      H1067   0.992       .  S
C1069      C1070   1.408       .  A
C1069      C1074   1.408       .  A
C1070      C1071   1.406       .  A
C1070      H1075   1.083       .  S
C1071      C1072   1.410       .  A
C1071      O1076   1.371       .  S
C1072      C1073   1.407       .  A
C1073      C1074   1.397       .  A
C1073      H1077   1.084       .  S
C1074      O1078   1.372       .  S
O1076      H1080   0.990       .  S
O1078      H1079   0.991       .  S
C1081      C1082   1.405       .  A
C1081      C1086   1.414       .  A
C1082      C1083   1.406       .  A
C1082      H1087   1.083       .  S
C1083      C1084   1.412       .  A
C1083      O1088   1.371       .  S
C1084      C1085   1.402       .  A
C1085      C1086   1.398       .  A
C1085      H1089   1.084       .  S
C1086      O1090   1.372       .  S
O1088      H1092   0.992       .  S
O1090      H1091   0.992       .  S
C1093      C1094   1.403       .  A
C1093      C1098   1.411       .  A
C1094      C1095   1.399       .  A
C1094      H1099   1.084       .  S
C1095      C1096   1.410       .  A
C1095      O1100   1.372       .  S
C1096      C1097   1.408       .  A
C1097      C1098   1.409       .  A
C1097      H1101   1.083       .  S
C1098      O1102   1.371       .  S
O1100      H1104   0.993       .  S
O1102      H1103   0.992       .  S
C1105      C1106   1.407       .  A
C1105      C1110   1.411       .  A
C1106      C1107   1.406       .  A
C1106      H1111   1.083       .  S
C1107      C1108   1.411       .  A
C1107      O1112   1.371       .  S
C1108      C1109   1.405       .  A
C1109      C1110   1.397       .  A
C1109      H1113   1.083       .  S
C1110      O1114   1.372       .  S
O1112      H1116   0.992       .  S
O1114      H1115   0.993       .  S
C1117      C1118   1.406       .  A
C1117      C1122   1.411       .  A
C1118      C1119   1.396       .  A
C1118      H1123   1.083       .  S
C1119      C1120   1.410       .  A
C1119      O1124   1.372       .  S
C1120      C1121   1.409       .  A
C1121      C1122   1.407       .  A
C1121      H1125   1.083       .  S
C1122      O1126   1.371       .  S
O1124      H1128   0.991       .  S
O1126      H1127   0.989       .  S
C1129      C1130   1.407       .  A
C1129      C1134   1.408       .  A
C1130      C1131   1.407       .  A
C1130      H1135   1.084       .  S
C1131      C1132   1.412       .  A
C1131      O1136   1.372       .  S
C1132      C1133   1.404       .  A
C1133      C1134   1.395       .  A
C1133      H1137   1.084       .  S
C1134      O1138   1.372       .  S
O1136      H1140   0.991       .  S
O1138      H1139   0.991       .  S
C1141      C1142   1.405       .  A
C1141      C1146   1.409       .  A
C1142      C1143   1.403       .  A
C1142      H1147   1.083       .  S
C1143      C1144   1.410       .  A
C1143      O1148   1.371       .  S
C1144      C1145   1.401       .  A
C1145      C1146   1.394       .  A
C1145      H1149   1.084       .  S
C1146      O1150   1.373       .  S
O1148      H1152   0.992       .  S
O1150      H1151   0.993       .  S
C1153      C1154   1.404       .  A
C1153      C1158   1.410       .  A
C1154      C1155   1.394       .  A
C1154      H1159   1.084       .  S
C1155      C1156   1.411       .  A
C1155      O1160   1.372       .  S
C1156      C1157   1.406       .  A
C1157      C1158   1.402       .  A
C1157      H1161   1.083       .  S
C1158      O1162   1.371       .  S
O1160      H1164   0.992       .  S
O1162      H1163   0.992       .  S
C1165      C1166   1.405       .  A
C1165      C1170   1.410       .  A
C1166      C1167   1.403       .  A
C1166      H1171   1.083       .  S
C1167      C1168   1.410       .  A
C1167      O1172   1.371       .  S
C1168      C1169   1.402       .  A
C1169      C1170   1.395       .  A
C1169      H1173   1.084       .  S
C1170      O1174   1.373       .  S
O1172      H1176   0.991       .  S
O1174      H1175   0.992       .  S
C1177      C1178   1.403       .  A
C1177      C1182   1.411       .  A
C1178      C1179   1.396       .  A
C1178      H1183   1.084       .  S
C1179      C1180   1.411       .  A
C1179      O1184   1.372       .  S
C1180      C1181   1.407       .  A
C1181      C1182   1.407       .  A
C1181      H1185   1.083       .  S
C1182      O1186   1.372       .  S
O1184      H1188   0.990       .  S
O1186      H1187   0.991       .  S
C1189      C1190   1.405       .  A
C1189      C1194   1.410       .  A
C1190      C1191   1.400       .  A
C1190      H1195   1.084       .  S
C1191      C1192   1.411       .  A
C1191      O1196   1.372       .  S
C1192      C1193   1.405       .  A
C1193      C1194   1.401       .  A
C1193      H1197   1.083       .  S
C1194      O1198   1.371       .  S
O1196      H1200   0.993       .  S
O1198      H1199   0.991       .  S
C1201      C1202   1.409       .  A
C1201      C1206   1.410       .  A
C1202      C1203   1.408       .  A
C1202      H1207   1.083       .  S
C1203      C1204   1.410       .  A
C1203      O1208   1.371       .  S
C1204      C1205   1.406       .  A
C1205      C1206   1.395       .  A
C1205      H1209   1.083       .  S
C1206      O1210   1.372       .  S
O1208      H1212   0.993       .  S
O1210      H1211   0.992       .  S
C1213      C1214   1.402       .  A
C1213      C1218   1.413       .  A
C1214      C1215   1.395       .  A
C1214      H1219   1.084       .  S
C1215      C1216   1.413       .  A
C1215      O1220   1.372       .  S
C1216      C1217   1.407       .  A
C1217      C1218   1.409       .  A
C1217      H1221   1.083       .  S
C1218      O1222   1.372       .  S
O1220      H1224   0.991       .  S
O1222      H1223   0.993       .  S
C1225      C1226   1.401       .  A
C1225      C1230   1.413       .  A
C1226      C1227   1.395       .  A
C1226      H1231   1.084       .  S
C1227      C1228   1.414       .  A
C1227      O1232   1.372       .  S
C1228      C1229   1.405       .  A
C1229      C1230   1.405       .  A
C1229      H1233   1.083       .  S
C1230      O1234   1.371       .  S
O1232      H1236   0.991       .  S
O1234      H1235   0.992       .  S
C1237      C1238   1.404       .  A
C1237      C1242   1.413       .  A
C1238      C1239   1.400       .  A
C1238      H1243   1.084       .  S
C1239      C1240   1.412       .  A
C1239      O1244   1.373       .  S
C1240      C1241   1.405       .  A
C1241      C1242   1.405       .  A
C1241      H1245   1.083       .  S
C1242      O1246   1.371       .  S
O1244      H1248   0.991       .  S
O1246      H1247   0.992       .  S
C1249      C1250   1.402       .  A
C1249      C1254   1.410       .  A
C1250      C1251   1.396       .  A
C1250      H1255   1.084       .  S
C1251      C1252   1.410       .  A
C1251      O1256   1.373       .  S
C1252      C1253   1.404       .  A
C1253      C1254   1.402       .  A
C1253      H1257   1.083       .  S
C1254      O1258   1.371       .  S
O1256      H1260   0.992       .  S
O1258      H1259   0.988       .  S
C1261      C1262   1.405       .  A
C1261      C1266   1.412       .  A
C1262      C1263   1.399       .  A
C1262      H1267   1.083       .  S
C1263      C1264   1.413       .  A
C1263      O1268   1.372       .  S
C1264      C1265   1.405       .  A
C1265      C1266   1.402       .  A
C1265      H1269   1.083       .  S
C1266      O1270   1.371       .  S
O1268      H1272   0.992       .  S
O1270      H1271   0.992       .  S
C1273      C1274   1.408       .  A
C1273      C1278   1.411       .  A
C1274      C1275   1.409       .  A
C1274      H1279   1.083       .  S
C1275      C1276   1.413       .  A
C1275      O1280   1.371       .  S
C1276      C1277   1.405       .  A
C1277      C1278   1.396       .  A
C1277      H1281   1.084       .  S
C1278      O1282   1.373       .  S
O1280      H1284   0.992       .  S
O1282      H1283   0.994       .  S
C1285      C1286   1.407       .  A
C1285      C1290   1.410       .  A
C1286      C1287   1.397       .  A
C1286      H1291   1.083       .  S
C1287      C1288   1.411       .  A
C1287      O1292   1.372       .  S
C1288      C1289   1.408       .  A
C1289      C1290   1.406       .  A
C1289      H1293   1.083       .  S
C1290      O1294   1.371       .  S
O1292      H1296   0.993       .  S
O1294      H1295   0.992       .  S
C1297      C1298   1.405       .  A
C1297      C1302   1.408       .  A
C1298      C1299   1.402       .  A
C1298      H1303   1.083       .  S
C1299      C1300   1.409       .  A
C1299      O1304   1.371       .  S
C1300      C1301   1.404       .  A
C1301      C1302   1.395       .  A
C1301      H1305   1.084       .  S
C1302      O1306   1.373       .  S
O1304      H1308   0.992       .  S
O1306      H1307   0.992       .  S
C1309      C1310   1.407       .  A
C1309      C1314   1.409       .  A
C1310      C1311   1.408       .  A
C1310      H1315   1.083       .  S
C1311      C1312   1.412       .  A
C1311      O1316   1.372       .  S
C1312      C1313   1.403       .  A
C1313      C1314   1.395       .  A
C1313      H1317   1.084       .  S
C1314      O1318   1.372       .  S
O1316      H1320   0.993       .  S
O1318      H1319   0.992       .  S
C1321      C1322   1.408       .  A
C1321      C1326   1.410       .  A
C1322      C1323   1.405       .  A
C1322      H1327   1.083       .  S
C1323      C1324   1.411       .  A
C1323      O1328   1.372       .  S
C1324      C1325   1.403       .  A
C1325      C1326   1.391       .  A
C1325      H1329   1.083       .  S
C1326      O1330   1.372       .  S
O1328      H1332   0.992       .  S
O1330      H1331   0.993       .  S
C1333      C1334   1.405       .  A
C1333      C1338   1.414       .  A
C1334      C1335   1.407       .  A
C1334      H1339   1.083       .  S
C1335      C1336   1.414       .  A
C1335      O1340   1.371       .  S
C1336      C1337   1.401       .  A
C1337      C1338   1.394       .  A
C1337      H1341   1.084       .  S
C1338      O1342   1.372       .  S
O1340      H1344   0.992       .  S
O1342      H1343   0.993       .  S
C1345      C1346   1.406       .  A
C1345      C1350   1.412       .  A
C1346      C1347   1.402       .  A
C1346      H1351   1.083       .  S
C1347      C1348   1.411       .  A
C1347      O1352   1.371       .  S
C1348      C1349   1.405       .  A
C1349      C1350   1.398       .  A
C1349      H1353   1.083       .  S
C1350      O1354   1.372       .  S
O1352      H1356   0.991       .  S
O1354      H1355   0.992       .  S
C1357      C1358   1.405       .  A
C1357      C1362   1.413       .  A
C1358      C1359   1.399       .  A
C1358      H1363   1.084       .  S
C1359      C1360   1.409       .  A
C1359      O1364   1.373       .  S
C1360      C1361   1.406       .  A
C1361      C1362   1.407       .  A
C1361      H1365   1.083       .  S
C1362      O1366   1.371       .  S
O1364      H1368   0.994       .  S
O1366      H1367   0.992       .  S
C1369      C1370   1.407       .  A
C1369      C1374   1.410       .  A
C1370      C1371   1.406       .  A
C1370      H1375   1.083       .  S
C1371      C1372   1.411       .  A
C1371      O1376   1.371       .  S
C1372      C1373   1.406       .  A
C1373      C1374   1.400       .  A
C1373      H1377   1.084       .  S
C1374      O1378   1.372       .  S
O1376      H1380   0.992       .  S
O1378      H1379   0.992       .  S
C1381      C1382   1.407       .  A
C1381      C1386   1.410       .  A
C1382      C1383   1.398       .  A
C1382      H1387   1.083       .  S
C1383      C1384   1.411       .  A
C1383      O1388   1.371       .  S
C1384      C1385   1.409       .  A
C1385      C1386   1.407       .  A
C1385      H1389   1.083       .  S
C1386      O1390   1.371       .  S
O1388      H1392   0.993       .  S
O1390      H1391   0.991       .  S
C1393      C1394   1.408       .  A
C1393      C1398   1.408       .  A
C1394      C1395   1.408       .  A
C1394      H1399   1.083       .  S
C1395      C1396   1.410       .  A
C1395      O1400   1.371       .  S
C1396      C1397   1.407       .  A
C1397      C1398   1.396       .  A
C1397      H1401   1.083       .  S
C1398      O1402   1.372       .  S
O1400      H1404   0.991       .  S
O1402      H1403   0.991       .  S
C1405      C1406   1.408       .  A
C1405      C1410   1.408       .  A
C1406      C1407   1.404       .  A
C1406      H1411   1.083       .  S
C1407      C1408   1.409       .  A
C1407      O1412   1.371       .  S
C1408      C1409   1.407       .  A
C1409      C1410   1.396       .  A
C1409      H1413   1.083       .  S
C1410      O1414   1.372       .  S
O1412      H1416   0.990       .  S
O1414      H1415   0.991       .  S
C1417      C1418   1.407       .  A
C1417      C1422   1.414       .  A
C1418      C1419   1.410       .  A
C1418      H1423   1.083       .  S
C1419      C1420   1.414       .  A
C1419      O1424   1.371       .  S
C1420      C1421   1.403       .  A
C1421      C1422   1.397       .  A
C1421      H1425   1.084       .  S
C1422      O1426   1.372       .  S
O1424      H1428   0.992       .  S
O1426      H1427   0.992       .  S
C1429      C1430   1.403       .  A
C1429      C1434   1.412       .  A
C1430      C1431   1.397       .  A
C1430      H1435   1.084       .  S
C1431      C1432   1.411       .  A
C1431      O1436   1.372       .  S
C1432      C1433   1.408       .  A
C1433      C1434   1.409       .  A
C1433      H1437   1.083       .  S
C1434      O1438   1.371       .  S
O1436      H1440   0.991       .  S
O1438      H1439   0.991       .  S
C1441      C1442   1.402       .  A
C1441      C1446   1.414       .  A
C1442      C1443   1.397       .  A
C1442      H1447   1.084       .  S
C1443      C1444   1.415       .  A
C1443      O1448   1.372       .  S
C1444      C1445   1.405       .  A
C1445      C1446   1.407       .  A
C1445      H1449   1.083       .  S
C1446      O1450   1.371       .  S
O1448      H1452   0.991       .  S
O1450      H1451   0.994       .  S
C1453      C1454   1.403       .  A
C1453      C1458   1.409       .  A
C1454      C1455   1.399       .  A
C1454      H1459   1.083       .  S
C1455      C1456   1.409       .  A
C1455      O1460   1.372       .  S
C1456      C1457   1.404       .  A
C1457      C1458   1.396       .  A
C1457      H1461   1.084       .  S
C1458      O1462   1.372       .  S
O1460      H1464   0.993       .  S
O1462      H1463   0.993       .  S
C1465      C1466   1.405       .  A
C1465      C1470   1.411       .  A
C1466      C1467   1.401       .  A
C1466      H1471   1.083       .  S
C1467      C1468   1.411       .  A
C1467      O1472   1.371       .  S
C1468      C1469   1.405       .  A
C1469      C1470   1.397       .  A
C1469      H1473   1.083       .  S
C1470      O1474   1.372       .  S
O1472      H1476   0.990       .  S
O1474      H1475   0.991       .  S
C1477      C1478   1.405       .  A
C1477      C1482   1.417       .  A
C1478      C1479   1.405       .  A
C1478      H1483   1.083       .  S
C1479      C1480   1.413       .  A
C1479      O1484   1.371       .  S
C1480      C1481   1.402       .  A
C1481      C1482   1.400       .  A
C1481      H1485   1.084       .  S
C1482      O1486   1.372       .  S
O1484      H1488   0.992       .  S
O1486      H1487   0.992       .  S
C1489      C1490   1.403       .  A
C1489      C1494   1.410       .  A
C1490      C1491   1.398       .  A
C1490      H1495   1.084       .  S
C1491      C1492   1.410       .  A
C1491      O1496   1.373       .  S
C1492      C1493   1.405       .  A
C1493      C1494   1.405       .  A
C1493      H1497   1.083       .  S
C1494      O1498   1.371       .  S
O1496      H1500   0.992       .  S
O1498      H1499   0.991       .  S
C1501      C1502   1.406       .  A
C1501      C1506   1.407       .  A
C1502      C1503   1.407       .  A
C1502      H1507   1.084       .  S
C1503      C1504   1.412       .  A
C1503      O1508   1.371       .  S
C1504      C1505   1.405       .  A
C1505      C1506   1.398       .  A
C1505      H1509   1.084       .  S
C1506      O1510   1.373       .  S
O1508      H1512   0.993       .  S
O1510      H1511   0.994       .  S
C1513      C1514   1.402       .  A
C1513      C1518   1.409       .  A
C1514      C1515   1.395       .  A
C1514      H1519   1.084       .  S
C1515      C1516   1.407       .  A
C1515      O1520   1.373       .  S
C1516      C1517   1.404       .  A
C1517      C1518   1.400       .  A
C1517      H1521   1.084       .  S
C1518      O1522   1.371       .  S
O1520      H1524   0.992       .  S
O1522      H1523   0.992       .  S
C1525      C1526   1.406       .  A
C1525      C1530   1.410       .  A
C1526      C1527   1.402       .  A
C1526      H1531   1.084       .  S
C1527      C1528   1.411       .  A
C1527      O1532   1.371       .  S
C1528      C1529   1.403       .  A
C1529      C1530   1.397       .  A
C1529      H1533   1.084       .  S
C1530      O1534   1.372       .  S
O1532      H1536   0.993       .  S
O1534      H1535   0.991       .  S
C1537      C1538   1.407       .  A
C1537      C1542   1.416       .  A
C1538      C1539   1.409       .  A
C1538      H1543   1.083       .  S
C1539      C1540   1.414       .  A
C1539      O1544   1.371       .  S
C1540      C1541   1.402       .  A
C1541      C1542   1.398       .  A
C1541      H1545   1.084       .  S
C1542      O1546   1.372       .  S
O1544      H1548   0.991       .  S
O1546      H1547   0.993       .  S
C1549      C1550   1.404       .  A
C1549      C1554   1.410       .  A
C1550      C1551   1.401       .  A
C1550      H1555   1.083       .  S
C1551      C1552   1.409       .  A
C1551      O1556   1.371       .  S
C1552      C1553   1.403       .  A
C1553      C1554   1.395       .  A
C1553      H1557   1.084       .  S
C1554      O1558   1.372       .  S
O1556      H1560   0.992       .  S
O1558      H1559   0.992       .  S
C1561      C1562   1.405       .  A
C1561      C1566   1.409       .  A
C1562      C1563   1.407       .  A
C1562      H1567   1.083       .  S
C1563      C1564   1.413       .  A
C1563      O1568   1.371       .  S
C1564      C1565   1.405       .  A
C1565      C1566   1.396       .  A
C1565      H1569   1.084       .  S
C1566      O1570   1.372       .  S
O1568      H1572   0.991       .  S
O1570      H1571   0.991       .  S
C1573      C1574   1.404       .  A
C1573      C1578   1.413       .  A
C1574      C1575   1.400       .  A
C1574      H1579   1.083       .  S
C1575      C1576   1.411       .  A
C1575      O1580   1.371       .  S
C1576      C1577   1.406       .  A
C1577      C1578   1.401       .  A
C1577      H1581   1.084       .  S
C1578      O1582   1.372       .  S
O1580      H1584   0.990       .  S
O1582      H1583   0.994       .  S
C1585      C1586   1.410       .  A
C1585      C1590   1.410       .  A
C1586      C1587   1.406       .  A
C1586      H1591   1.083       .  S
C1587      C1588   1.409       .  A
C1587      O1592   1.371       .  S
C1588      C1589   1.405       .  A
C1589      C1590   1.394       .  A
C1589      H1593   1.084       .  S
C1590      O1594   1.372       .  S
O1592      H1596   0.990       .  S
O1594      H1595   0.991       .  S
C1597      C1598   1.409       .  A
C1597      C1602   1.412       .  A
C1598      C1599   1.406       .  A
C1598      H1603   1.083       .  S
C1599      C1600   1.409       .  A
C1599      O1604   1.371       .  S
C1600      C1601   1.406       .  A
C1601      C1602   1.398       .  A
C1601      H1605   1.084       .  S
C1602      O1606   1.372       .  S
O1604      H1608   0.991       .  S
O1606      H1607   0.993       .  S
C1609      C1610   1.406       .  A
C1609      C1614   1.408       .  A
C1610      C1611   1.403       .  A
C1610      H1615   1.084       .  S
C1611      C1612   1.410       .  A
C1611      O1616   1.371       .  S
C1612      C1613   1.403       .  A
C1613      C1614   1.391       .  A
C1613      H1617   1.084       .  S
C1614      O1618   1.372       .  S
O1616      H1620   0.992       .  S
O1618      H1619   0.992       .  S
C1621      C1622   1.404       .  A
C1621      C1626   1.410       .  A
C1622      C1623   1.399       .  A
C1622      H1627   1.083       .  S
C1623      C1624   1.410       .  A
C1623      O1628   1.371       .  S
C1624      C1625   1.403       .  A
C1625      C1626   1.395       .  A
C1625      H1629   1.084       .  S
C1626      O1630   1.372       .  S
O1628      H1632   0.992       .  S
O1630      H1631   0.992       .  S
C1633      C1634   1.402       .  A
C1633      C1638   1.409       .  A
C1634      C1635   1.392       .  A
C1634      H1639   1.084       .  S
C1635      C1636   1.409       .  A
C1635      O1640   1.372       .  S
C1636      C1637   1.407       .  A
C1637      C1638   1.408       .  A
C1637      H1641   1.083       .  S
C1638      O1642   1.371       .  S
O1640      H1644   0.991       .  S
O1642      H1643   0.993       .  S
C1645      C1646   1.406       .  A
C1645      C1650   1.411       .  A
C1646      C1647   1.396       .  A
C1646      H1651   1.083       .  S
C1647      C1648   1.410       .  A
C1647      O1652   1.372       .  S
C1648      C1649   1.411       .  A
C1649      C1650   1.410       .  A
C1649      H1653   1.083       .  S
C1650      O1654   1.371       .  S
O1652      H1656   0.992       .  S
O1654      H1655   0.992       .  S
C1657      C1658   1.406       .  A
C1657      C1662   1.410       .  A
C1658      C1659   1.404       .  A
C1658      H1663   1.083       .  S
C1659      C1660   1.410       .  A
C1659      O1664   1.371       .  S
C1660      C1661   1.403       .  A
C1661      C1662   1.397       .  A
C1661      H1665   1.084       .  S
C1662      O1666   1.373       .  S
O1664      H1668   0.991       .  S
O1666      H1667   0.992       .  S
C1669      C1670   1.403       .  A
C1669      C1674   1.411       .  A
C1670      C1671   1.395       .  A
C1670      H1675   1.084       .  S
C1671      C1672   1.410       .  A
C1671      O1676   1.373       .  S
C1672      C1673   1.406       .  A
C1673      C1674   1.407       .  A
C1673      H1677   1.083       .  S
C1674      O1678   1.371       .  S
O1676      H1680   0.993       .  S
O1678      H1679   0.992       .  S
C1681      C1682   1.403       .  A
C1681      C1686   1.411       .  A
C1682      C1683   1.395       .  A
C1682      H1687   1.084       .  S
C1683      C1684   1.412       .  A
C1683      O1688   1.372       .  S
C1684      C1685   1.406       .  A
C1685      C1686   1.403       .  A
C1685      H1689   1.083       .  S
C1686      O1690   1.371       .  S
O1688      H1692   0.993       .  S
O1690      H1691   0.991       .  S
C1693      C1694   1.404       .  A
C1693      C1698   1.410       .  A
C1694      C1695   1.398       .  A
C1694      H1699   1.084       .  S
C1695      C1696   1.411       .  A
C1695      O1700   1.372       .  S
C1696      C1697   1.404       .  A
C1697      C1698   1.399       .  A
C1697      H1701   1.083       .  S
C1698      O1702   1.371       .  S
O1700      H1704   0.993       .  S
O1702      H1703   0.991       .  S
C1705      C1706   1.407       .  A
C1705      C1710   1.410       .  A
C1706      C1707   1.408       .  A
C1706      H1711   1.083       .  S
C1707      C1708   1.411       .  A
C1707      O1712   1.371       .  S
C1708      C1709   1.404       .  A
C1709      C1710   1.397       .  A
C1709      H1713   1.084       .  S
C1710      O1714   1.373       .  S
O1712      H1716   0.991       .  S
O1714      H1715   0.993       .  S
C1717      C1718   1.405       .  A
C1717      C1722   1.410       .  A
C1718      C1719   1.394       .  A
C1718      H1723   1.084       .  S
C1719      C1720   1.409       .  A
C1719      O1724   1.372       .  S
C1720      C1721   1.410       .  A
C1721      C1722   1.409       .  A
C1721      H1725   1.083       .  S
C1722      O1726   1.371       .  S
O1724      H1728   0.993       .  S
O1726      H1727   0.991       .  S
C1729      C1730   1.408       .  A
C1729      C1734   1.409       .  A
C1730      C1731   1.406       .  A
C1730      H1735   1.083       .  S
C1731      C1732   1.411       .  A
C1731      O1736   1.371       .  S
C1732      C1733   1.405       .  A
C1733      C1734   1.393       .  A
C1733      H1737   1.083       .  S
C1734      O1738   1.372       .  S
O1736      H1740   0.991       .  S
O1738      H1739   0.992       .  S
C1741      C1742   1.402       .  A
C1741      C1746   1.414       .  A
C1742      C1743   1.397       .  A
C1742      H1747   1.084       .  S
C1743      C1744   1.416       .  A
C1743      O1748   1.372       .  S
C1744      C1745   1.405       .  A
C1745      C1746   1.407       .  A
C1745      H1749   1.083       .  S
C1746      O1750   1.371       .  S
O1748      H1752   0.992       .  S
O1750      H1751   0.992       .  S
C1753      C1754   1.409       .  A
C1753      C1758   1.410       .  A
C1754      C1755   1.408       .  A
C1754      H1759   1.083       .  S
C1755      C1756   1.410       .  A
C1755      O1760   1.371       .  S
C1756      C1757   1.408       .  A
C1757      C1758   1.398       .  A
C1757      H1761   1.083       .  S
C1758      O1762   1.372       .  S
O1760      H1764   0.991       .  S
O1762      H1763   0.993       .  S
C1765      C1766   1.402       .  A
C1765      C1770   1.415       .  A
C1766      C1767   1.396       .  A
C1766      H1771   1.083       .  S
C1767      C1768   1.414       .  A
C1767      O1772   1.372       .  S
C1768      C1769   1.406       .  A
C1769      C1770   1.409       .  A
C1769      H1773   1.083       .  S
C1770      O1774   1.371       .  S
O1772      H1776   0.992       .  S
O1774      H1775   0.991       .  S
C1777      C1778   1.402       .  A
C1777      C1782   1.411       .  A
C1778      C1779   1.392       .  A
C1778      H1783   1.084       .  S
C1779      C1780   1.410       .  A
C1779      O1784   1.372       .  S
C1780      C1781   1.405       .  A
C1781      C1782   1.403       .  A
C1781      H1785   1.083       .  S
C1782      O1786   1.371       .  S
O1784      H1788   0.992       .  S
O1786      H1787   0.990       .  S
C1789      C1790   1.406       .  A
C1789      C1794   1.410       .  A
C1790      C1791   1.394       .  A
C1790      H1795   1.084       .  S
C1791      C1792   1.408       .  A
C1791      O1796   1.372       .  S
C1792      C1793   1.409       .  A
C1793      C1794   1.406       .  A
C1793      H1797   1.083       .  S
C1794      O1798   1.371       .  S
O1796      H1800   0.991       .  S
O1798      H1799   0.993       .  S
C1801      C1802   1.403       .  A
C1801      C1806   1.410       .  A
C1802      C1803   1.395       .  A
C1802      H1807   1.084       .  S
C1803      C1804   1.409       .  A
C1803      O1808   1.372       .  S
C1804      C1805   1.404       .  A
C1805      C1806   1.401       .  A
C1805      H1809   1.083       .  S
C1806      O1810   1.372       .  S
O1808      H1812   0.992       .  S
O1810      H1811   0.992       .  S
C1813      C1814   1.402       .  A
C1813      C1818   1.410       .  A
C1814      C1815   1.394       .  A
C1814      H1819   1.084       .  S
C1815      C1816   1.410       .  A
C1815      O1820   1.373       .  S
C1816      C1817   1.407       .  A
C1817      C1818   1.406       .  A
C1817      H1821   1.083       .  S
C1818      O1822   1.371       .  S
O1820      H1824   0.993       .  S
O1822      H1823   0.992       .  S
C1825      C1826   1.404       .  A
C1825      C1830   1.411       .  A
C1826      C1827   1.396       .  A
C1826      H1831   1.083       .  S
C1827      C1828   1.411       .  A
C1827      O1832   1.372       .  S
C1828      C1829   1.406       .  A
C1829      C1830   1.403       .  A
C1829      H1833   1.083       .  S
C1830      O1834   1.371       .  S
O1832      H1836   0.993       .  S
O1834      H1835   0.991       .  S
C1837      C1838   1.404       .  A
C1837      C1842   1.414       .  A
C1838      C1839   1.407       .  A
C1838      H1843   1.083       .  S
C1839      C1840   1.415       .  A
C1839      O1844   1.371       .  S
C1840      C1841   1.402       .  A
C1841      C1842   1.397       .  A
C1841      H1845   1.083       .  S
C1842      O1846   1.372       .  S
O1844      H1848   0.992       .  S
O1846      H1847   0.992       .  S
C1849      C1850   1.404       .  A
C1849      C1854   1.412       .  A
C1850      C1851   1.398       .  A
C1850      H1855   1.084       .  S
C1851      C1852   1.409       .  A
C1851      O1856   1.373       .  S
C1852      C1853   1.406       .  A
C1853      C1854   1.407       .  A
C1853      H1857   1.083       .  S
C1854      O1858   1.371       .  S
O1856      H1860   0.993       .  S
O1858      H1859   0.993       .  S
C1861      C1862   1.409       .  A
C1861      C1866   1.411       .  A
C1862      C1863   1.408       .  A
C1862      H1867   1.083       .  S
C1863      C1864   1.411       .  A
C1863      O1868   1.371       .  S
C1864      C1865   1.406       .  A
C1865      C1866   1.398       .  A
C1865      H1869   1.083       .  S
C1866      O1870   1.372       .  S
O1868      H1872   0.991       .  S
O1870      H1871   0.991       .  S
C1873      C1874   1.405       .  A
C1873      C1878   1.409       .  A
C1874      C1875   1.401       .  A
C1874      H1879   1.084       .  S
C1875      C1876   1.409       .  A
C1875      O1880   1.372       .  S
C1876      C1877   1.403       .  A
C1877      C1878   1.394       .  A
C1877      H1881   1.084       .  S
C1878      O1882   1.372       .  S
O1880      H1884   0.992       .  S
O1882      H1883   0.992       .  S
C1885      C1886   1.405       .  A
C1885      C1890   1.411       .  A
C1886      C1887   1.399       .  A
C1886      H1891   1.083       .  S
C1887      C1888   1.410       .  A
C1887      O1892   1.372       .  S
C1888      C1889   1.405       .  A
C1889      C1890   1.397       .  A
C1889      H1893   1.084       .  S
C1890      O1894   1.372       .  S
O1892      H1896   0.992       .  S
O1894      H1895   0.992       .  S
C1897      C1898   1.406       .  A
C1897      C1902   1.411       .  A
C1898      C1899   1.397       .  A
C1898      H1903   1.083       .  S
C1899      C1900   1.411       .  A
C1899      O1904   1.372       .  S
C1900      C1901   1.410       .  A
C1901      C1902   1.409       .  A
C1901      H1905   1.083       .  S
C1902      O1906   1.371       .  S
O1904      H1908   0.992       .  S
O1906      H1907   0.991       .  S
C1909      C1910   1.403       .  A
C1909      C1914   1.410       .  A
C1910      C1911   1.393       .  A
C1910      H1915   1.084       .  S
C1911      C1912   1.409       .  A
C1911      O1916   1.372       .  S
C1912      C1913   1.404       .  A
C1913      C1914   1.402       .  A
C1913      H1917   1.083       .  S
C1914      O1918   1.371       .  S
O1916      H1920   0.991       .  S
O1918      H1919   0.992       .  S
C1921      C1922   1.406       .  A
C1921      C1926   1.410       .  A
C1922      C1923   1.407       .  A
C1922      H1927   1.083       .  S
C1923      C1924   1.411       .  A
C1923      O1928   1.371       .  S
C1924      C1925   1.402       .  A
C1925      C1926   1.397       .  A
C1925      H1929   1.084       .  S
C1926      O1930   1.372       .  S
O1928      H1932   0.993       .  S
O1930      H1931   0.990       .  S
C1933      C1934   1.404       .  A
C1933      C1938   1.411       .  A
C1934      C1935   1.395       .  A
C1934      H1939   1.083       .  S
C1935      C1936   1.411       .  A
C1935      O1940   1.372       .  S
C1936      C1937   1.405       .  A
C1937      C1938   1.400       .  A
C1937      H1941   1.083       .  S
C1938      O1942   1.372       .  S
O1940      H1944   0.991       .  S
O1942      H1943   0.991       .  S
C1945      C1946   1.410       .  A
C1945      C1950   1.409       .  A
C1946      C1947   1.407       .  A
C1946      H1951   1.083       .  S
C1947      C1948   1.409       .  A
C1947      O1952   1.371       .  S
C1948      C1949   1.405       .  A
C1949      C1950   1.393       .  A
C1949      H1953   1.084       .  S
C1950      O1954   1.372       .  S
O1952      H1956   0.991       .  S
O1954      H1955   0.993       .  S
C1957      C1958   1.402       .  A
C1957      C1962   1.413       .  A
C1958      C1959   1.397       .  A
C1958      H1963   1.084       .  S
C1959      C1960   1.415       .  A
C1959      O1964   1.372       .  S
C1960      C1961   1.406       .  A
C1961      C1962   1.406       .  A
C1961      H1965   1.083       .  S
C1962      O1966   1.371       .  S
O1964      H1968   0.992       .  S
O1966      H1967   0.992       .  S
C1969      C1970   1.402       .  A
C1969      C1974   1.407       .  A
C1970      C1971   1.400       .  A
C1970      H1975   1.084       .  S
C1971      C1972   1.410       .  A
C1971      O1976   1.371       .  S
C1972      C1973   1.403       .  A
C1973      C1974   1.391       .  A
C1973      H1977   1.084       .  S
C1974      O1978   1.373       .  S
O1976      H1980   0.991       .  S
O1978      H1979   0.992       .  S
C1981      C1982   1.402       .  A
C1981      C1986   1.409       .  A
C1982      C1983   1.393       .  A
C1982      H1987   1.084       .  S
C1983      C1984   1.408       .  A
C1983      O1988   1.373       .  S
C1984      C1985   1.405       .  A
C1985      C1986   1.402       .  A
C1985      H1989   1.084       .  S
C1986      O1990   1.371       .  S
O1988      H1992   0.992       .  S
O1990      H1991   0.991       .  S
C1993      C1994   1.403       .  A
C1993      C1998   1.410       .  A
C1994      C1995   1.392       .  A
C1994      H1999   1.083       .  S
C1995      C1996   1.410       .  A
C1995      O2000   1.372       .  S
C1996      C1997   1.405       .  A
C1997      C1998   1.399       .  A
C1997      H2001   1.083       .  S
C1998      O2002   1.371       .  S
O2000      H2004   0.990       .  S
O2002      H2003   0.993       .  S
C2005      C2006   1.402       .  A
C2005      C2010   1.409       .  A
C2006      C2007   1.396       .  A
C2006      H2011   1.084       .  S
C2007      C2008   1.409       .  A
C2007      O2012   1.373       .  S
C2008      C2009   1.403       .  A
C2009      C2010   1.401       .  A
C2009      H2013   1.084       .  S
C2010      O2014   1.371       .  S
O2012      H2016   0.993       .  S
O2014      H2015   0.993       .  S
C2017      C2018   1.404       .  A
C2017      C2022   1.411       .  A
C2018      C2019   1.397       .  A
C2018      H2023   1.084       .  S
C2019      C2020   1.412       .  A
C2019      O2024   1.373       .  S
C2020      C2021   1.408       .  A
C2021      C2022   1.408       .  A
C2021      H2025   1.083       .  S
C2022      O2026   1.371       .  S
O2024      H2028   0.993       .  S
O2026      H2027   0.992       .  S
C2029      C2030   1.405       .  A
C2029      C2034   1.416       .  A
C2030      C2031   1.406       .  A
C2030      H2035   1.083       .  S
C2031      C2032   1.414       .  A
C2031      O2036   1.371       .  S
C2032      C2033   1.402       .  A
C2033      C2034   1.397       .  A
C2033      H2037   1.084       .  S
C2034      O2038   1.372       .  S
O2036      H2040   0.992       .  S
O2038      H2039   0.991       .  S
C2041      C2042   1.402       .  A
C2041      C2046   1.409       .  A
C2042      C2043   1.393       .  A
C2042      H2047   1.084       .  S
C2043      C2044   1.408       .  A
C2043      O2048   1.372       .  S
C2044      C2045   1.405       .  A
C2045      C2046   1.403       .  A
C2045      H2049   1.083       .  S
C2046      O2050   1.372       .  S
O2048      H2052   0.992       .  S
O2050      H2051   0.992       .  S
C2053      C2054   1.406       .  A
C2053      C2058   1.410       .  A
C2054      C2055   1.406       .  A
C2054      H2059   1.083       .  S
C2055      C2056   1.411       .  A
C2055      O2060   1.371       .  S
C2056      C2057   1.404       .  A
C2057      C2058   1.396       .  A
C2057      H2061   1.084       .  S
C2058      O2062   1.372       .  S
O2060      H2064   0.992       .  S
O2062      H2063   0.991       .  S
C2065      C2066   1.407       .  A
C2065      C2070   1.411       .  A
C2066      C2067   1.399       .  A
C2066      H2071   1.083       .  S
C2067      C2068   1.411       .  A
C2067      O2072   1.372       .  S
C2068      C2069   1.408       .  A
C2069      C2070   1.407       .  A
C2069      H2073   1.083       .  S
C2070      O2074   1.371       .  S
O2072      H2076   0.991       .  S
O2074      H2075   0.990       .  S
C2077      C2078   1.404       .  A
C2077      C2082   1.411       .  A
C2078      C2079   1.396       .  A
C2078      H2083   1.084       .  S
C2079      C2080   1.412       .  A
C2079      O2084   1.372       .  S
C2080      C2081   1.404       .  A
C2081      C2082   1.399       .  A
C2081      H2085   1.083       .  S
C2082      O2086   1.372       .  S
O2084      H2088   0.992       .  S
O2086      H2087   0.992       .  S
C2089      C2090   1.407       .  A
C2089      C2094   1.411       .  A
C2090      C2091   1.397       .  A
C2090      H2095   1.083       .  S
C2091      C2092   1.410       .  A
C2091      O2096   1.372       .  S
C2092      C2093   1.409       .  A
C2093      C2094   1.408       .  A
C2093      H2097   1.083       .  S
C2094      O2098   1.371       .  S
O2096      H2100   0.992       .  S
O2098      H2099   0.992       .  S
C2101      C2102   1.404       .  A
C2101      C2106   1.412       .  A
C2102      C2103   1.399       .  A
C2102      H2107   1.083       .  S
C2103      C2104   1.411       .  A
C2103      O2108   1.372       .  S
C2104      C2105   1.404       .  A
C2105      C2106   1.396       .  A
C2105      H2109   1.084       .  S
C2106      O2110   1.372       .  S
O2108      H2112   0.992       .  S
O2110      H2111   0.992       .  S
C2113      C2114   1.408       .  A
C2113      C2118   1.410       .  A
C2114      C2115   1.410       .  A
C2114      H2119   1.083       .  S
C2115      C2116   1.412       .  A
C2115      O2120   1.371       .  S
C2116      C2117   1.403       .  A
C2117      C2118   1.398       .  A
C2117      H2121   1.084       .  S
C2118      O2122   1.372       .  S
O2120      H2124   0.992       .  S
O2122      H2123   0.993       .  S
C2125      C2126   1.406       .  A
C2125      C2130   1.415       .  A
C2126      C2127   1.406       .  A
C2126      H2131   1.083       .  S
C2127      C2128   1.413       .  A
C2127      O2132   1.371       .  S
C2128      C2129   1.403       .  A
C2129      C2130   1.398       .  A
C2129      H2133   1.084       .  S
C2130      O2134   1.372       .  S
O2132      H2136   0.993       .  S
O2134      H2135   0.992       .  S
C2137      C2138   1.408       .  A
C2137      C2142   1.410       .  A
C2138      C2139   1.406       .  A
C2138      H2143   1.083       .  S
C2139      C2140   1.410       .  A
C2139      O2144   1.371       .  S
C2140      C2141   1.407       .  A
C2141      C2142   1.398       .  A
C2141      H2145   1.083       .  S
C2142      O2146   1.372       .  S
O2144      H2148   0.992       .  S
O2146      H2147   0.993       .  S
C2149      C2150   1.408       .  A
C2149      C2154   1.410       .  A
C2150      C2151   1.399       .  A
C2150      H2155   1.083       .  S
C2151      C2152   1.412       .  A
C2151      O2156   1.372       .  S
C2152      C2153   1.408       .  A
C2153      C2154   1.407       .  A
C2153      H2157   1.083       .  S
C2154      O2158   1.371       .  S
O2156      H2160   0.993       .  S
O2158      H2159   0.991       .  S
C2161      C2162   1.404       .  A
C2161      C2166   1.409       .  A
C2162      C2163   1.400       .  A
C2162      H2167   1.084       .  S
C2163      C2164   1.409       .  A
C2163      O2168   1.372       .  S
C2164      C2165   1.404       .  A
C2165      C2166   1.397       .  A
C2165      H2169   1.084       .  S
C2166      O2170   1.372       .  S
O2168      H2172   0.992       .  S
O2170      H2171   0.992       .  S
C2173      C2174   1.405       .  A
C2173      C2178   1.414       .  A
C2174      C2175   1.407       .  A
C2174      H2179   1.083       .  S
C2175      C2176   1.414       .  A
C2175      O2180   1.371       .  S
C2176      C2177   1.405       .  A
C2177      C2178   1.401       .  A
C2177      H2181   1.083       .  S
C2178      O2182   1.372       .  S
O2180      H2184   0.992       .  S
O2182      H2183   0.991       .  S
C2185      C2186   1.403       .  A
C2185      C2190   1.409       .  A
C2186      C2187   1.394       .  A
C2186      H2191   1.084       .  S
C2187      C2188   1.406       .  A
C2187      O2192   1.372       .  S
C2188      C2189   1.403       .  A
C2189      C2190   1.401       .  A
C2189      H2193   1.084       .  S
C2190      O2194   1.371       .  S
O2192      H2196   0.991       .  S
O2194      H2195   0.992       .  S
C2197      C2198   1.406       .  A
C2197      C2202   1.409       .  A
C2198      C2199   1.405       .  A
C2198      H2203   1.083       .  S
C2199      C2200   1.410       .  A
C2199      O2204   1.371       .  S
C2200      C2201   1.405       .  A
C2201      C2202   1.398       .  A
C2201      H2205   1.084       .  S
C2202      O2206   1.373       .  S
O2204      H2208   0.992       .  S
O2206      H2207   0.994       .  S
C2209      C2210   1.406       .  A
C2209      C2214   1.413       .  A
C2210      C2211   1.408       .  A
C2210      H2215   1.083       .  S
C2211      C2212   1.415       .  A
C2211      O2216   1.371       .  S
C2212      C2213   1.402       .  A
C2213      C2214   1.396       .  A
C2213      H2217   1.083       .  S
C2214      O2218   1.372       .  S
O2216      H2220   0.992       .  S
O2218      H2219   0.993       .  S
C2221      C2222   1.402       .  A
C2221      C2226   1.411       .  A
C2222      C2223   1.392       .  A
C2222      H2227   1.084       .  S
C2223      C2224   1.410       .  A
C2223      O2228   1.372       .  S
C2224      C2225   1.405       .  A
C2225      C2226   1.403       .  A
C2225      H2229   1.083       .  S
C2226      O2230   1.371       .  S
O2228      H2232   0.992       .  S
O2230      H2231   0.992       .  S
C2233      C2234   1.403       .  A
C2233      C2238   1.411       .  A
C2234      C2235   1.393       .  A
C2234      H2239   1.084       .  S
C2235      C2236   1.410       .  A
C2235      O2240   1.372       .  S
C2236      C2237   1.404       .  A
C2237      C2238   1.400       .  A
C2237      H2241   1.083       .  S
C2238      O2242   1.371       .  S
O2240      H2244   0.992       .  S
O2242      H2243   0.991       .  S
C2245      C2246   1.406       .  A
C2245      C2250   1.415       .  A
C2246      C2247   1.408       .  A
C2246      H2251   1.083       .  S
C2247      C2248   1.415       .  A
C2247      O2252   1.371       .  S
C2248      C2249   1.401       .  A
C2249      C2250   1.395       .  A
C2249      H2253   1.083       .  S
C2250      O2254   1.372       .  S
O2252      H2256   0.992       .  S
O2254      H2255   0.992       .  S
C2257      C2258   1.407       .  A
C2257      C2262   1.408       .  A
C2258      C2259   1.403       .  A
C2258      H2263   1.084       .  S
C2259      C2260   1.409       .  A
C2259      O2264   1.371       .  S
C2260      C2261   1.401       .  A
C2261      C2262   1.393       .  A
C2261      H2265   1.084       .  S
C2262      O2266   1.372       .  S
O2264      H2268   0.992       .  S
O2266      H2267   0.992       .  S
C2269      C2270   1.405       .  A
C2269      C2274   1.409       .  A
C2270      C2271   1.406       .  A
C2270      H2275   1.083       .  S
C2271      C2272   1.411       .  A
C2271      O2276   1.371       .  S
C2272      C2273   1.403       .  A
C2273      C2274   1.395       .  A
C2273      H2277   1.084       .  S
C2274      O2278   1.372       .  S
O2276      H2280   0.993       .  S
O2278      H2279   0.992       .  S
C2281      C2282   1.407       .  A
C2281      C2286   1.414       .  A
C2282      C2283   1.410       .  A
C2282      H2287   1.083       .  S
C2283      C2284   1.416       .  A
C2283      O2288   1.372       .  S
C2284      C2285   1.399       .  A
C2285      C2286   1.391       .  A
C2285      H2289   1.083       .  S
C2286      O2290   1.372       .  S
O2288      H2292   0.992       .  S
O2290      H2291   0.992       .  S
C2293      C2294   1.406       .  A
C2293      C2298   1.409       .  A
C2294      C2295   1.403       .  A
C2294      H2299   1.083       .  S
C2295      C2296   1.409       .  A
C2295      O2300   1.371       .  S
C2296      C2297   1.402       .  A
C2297      C2298   1.392       .  A
C2297      H2301   1.084       .  S
C2298      O2302   1.372       .  S
O2300      H2304   0.992       .  S
O2302      H2303   0.991       .  S
C2305      C2306   1.405       .  A
C2305      C2310   1.412       .  A
C2306      C2307   1.400       .  A
C2306      H2311   1.083       .  S
C2307      C2308   1.411       .  A
C2307      O2312   1.372       .  S
C2308      C2309   1.404       .  A
C2309      C2310   1.397       .  A
C2309      H2313   1.084       .  S
C2310      O2314   1.372       .  S
O2312      H2316   0.992       .  S
O2314      H2315   0.992       .  S
C2317      C2318   1.408       .  A
C2317      C2322   1.410       .  A
C2318      C2319   1.397       .  A
C2318      H2323   1.083       .  S
C2319      C2320   1.409       .  A
C2319      O2324   1.372       .  S
C2320      C2321   1.409       .  A
C2321      C2322   1.407       .  A
C2321      H2325   1.083       .  S
C2322      O2326   1.371       .  S
O2324      H2328   0.992       .  S
O2326      H2327   0.991       .  S
C2329      C2330   1.402       .  A
C2329      C2334   1.411       .  A
C2330      C2331   1.394       .  A
C2330      H2335   1.084       .  S
C2331      C2332   1.408       .  A
C2331      O2336   1.373       .  S
C2332      C2333   1.405       .  A
C2333      C2334   1.405       .  A
C2333      H2337   1.084       .  S
C2334      O2338   1.371       .  S
O2336      H2340   0.993       .  S
O2338      H2339   0.992       .  S
C2341      C2342   1.405       .  A
C2341      C2346   1.409       .  A
C2342      C2343   1.401       .  A
C2342      H2347   1.083       .  S
C2343      C2344   1.410       .  A
C2343      O2348   1.371       .  S
C2344      C2345   1.402       .  A
C2345      C2346   1.394       .  A
C2345      H2349   1.084       .  S
C2346      O2350   1.372       .  S
O2348      H2352   0.991       .  S
O2350      H2351   0.992       .  S
C2353      C2354   1.406       .  A
C2353      C2358   1.410       .  A
C2354      C2355   1.407       .  A
C2354      H2359   1.083       .  S
C2355      C2356   1.411       .  A
C2355      O2360   1.371       .  S
C2356      C2357   1.405       .  A
C2357      C2358   1.399       .  A
C2357      H2361   1.084       .  S
C2358      O2362   1.373       .  S
O2360      H2364   0.992       .  S
O2362      H2363   0.993       .  S
C2365      C2366   1.406       .  A
C2365      C2370   1.413       .  A
C2366      C2367   1.407       .  A
C2366      H2371   1.083       .  S
C2367      C2368   1.413       .  A
C2367      O2372   1.371       .  S
C2368      C2369   1.403       .  A
C2369      C2370   1.397       .  A
C2369      H2373   1.084       .  S
C2370      O2374   1.372       .  S
O2372      H2376   0.993       .  S
O2374      H2375   0.992       .  S
