geometry optimzed in LAMMPS
_audit_creation_date              2020-11-30 
_audit_creation_method            'lammps2cif' 
_symmetry_space_group_name_H-M    'P1' 
_symmetry_Int_Tables_number       1 
_symmetry_cell_setting            triclinic 
loop_ 
_symmetry_equiv_pos_as_xyz 
  x,y,z 
_cell_length_a                    33.34097418 
_cell_length_b                    33.99138684666535 
_cell_length_c                    45.34214998820593 
_cell_angle_alpha                 89.99929723614659 
_cell_angle_beta                  90.36300990928169 
_cell_angle_gamma                 80.916837698874 
loop_ 
_atom_site_label 
_atom_site_type_symbol 
_atom_site_fract_x 
_atom_site_fract_y 
_atom_site_fract_z 
_atom_site_charge 
O1          O  0.19908803  0.35192500  0.60394634    -0.78200
C2          C  0.32460206  0.33797495  0.62660331     0.82800
O3          O  0.26197358  0.23091135  0.55094480    -0.79300
O4          O  0.33799074  0.21059854  0.64374570    -0.80800
O5          O  0.21141331  0.26365229  0.68943748    -0.80600
O6          O  0.16449515  0.32225043  0.63706230    -0.79200
Zn7        Zn  0.25036949  0.31239061  0.59614592     1.55700
O8          O  0.27817053  0.26100639  0.69281869    -0.80600
Cd9        Cd  0.20042295  0.26797608  0.64422144     1.59700
Cd10       Cd  0.25868581  0.21603153  0.59548652     1.59600
O11         O  0.16883354  0.22244598  0.63248989    -0.80600
O12         O  0.25149814  0.26510229  0.62079092    -1.91100
Cd13       Cd  0.29732308  0.26195264  0.64966064     1.59900
O14         O  0.20909436  0.18620018  0.60007287    -0.80600
O15         O  0.32788846  0.30963808  0.64517200    -0.79200
C16         C  0.25841958  0.26465259  0.53798282     0.83300
C17         C  0.16863426  0.35187958  0.62082833     0.82900
O18         O  0.29732486  0.34132665  0.60647923    -0.78200
C19         C  0.24376337  0.26165510  0.70490078     0.83800
O20         O  0.25352359  0.29729418  0.55247807    -0.78300
C21         C  0.17654451  0.19265225  0.61518355     0.83900
C22         C  0.33892221  0.18011455  0.62736133     0.84200
O23         O  0.31129858  0.17767389  0.60805228    -0.80700
C24         C  0.03571956  0.48436846  0.63434754     0.30300
C25         C  0.47296034  0.04652956  0.63742950     0.30300
C26         C  0.49405376  0.47578160  0.62304073    -0.05900
C27         C  0.02448721  0.49974565  0.66570947    -0.06700
C28         C  0.04165864  0.02225543  0.61757667    -0.06600
C29         C  0.46219589  0.50786157  0.62472475    -0.05900
C30         C  0.49242291  0.03210588  0.66750838    -0.06700
C31         C  0.00953992  0.05395566  0.61942305    -0.06600
C32         C  0.42659219  0.49239246  0.62713377    -0.32000
N33         N  0.43501893  0.45227983  0.62585555     0.14500
C34         C  0.47592730  0.44185125  0.62512052    -0.32000
H35         H  0.49155126  0.41167912  0.62801413     0.16500
C36         C  0.47787512  0.03177672  0.69600832    -0.30900
N37         N  0.00128348  0.50259577  0.71178014     0.13300
C38         C  0.02803074  0.48154075  0.69302884    -0.30900
C39         C  0.02589146  0.08857958  0.61675085    -0.31200
N40         N  0.06622278  0.07924784  0.61225533     0.13800
H41         H  0.01033624  0.11836990  0.62129046     0.16400
C42         C  0.07633105  0.03913113  0.61296492    -0.31200
H43         H  0.10726584  0.02365424  0.61342248     0.16400
H44         H  0.04698123  0.45354197  0.69829937     0.16400
H45         H  0.39703670  0.50913108  0.63215433     0.16500
H46         H  0.45079927  0.04976425  0.70449662     0.16400
O47         O  0.02042669  0.07859823  0.93606208    -0.78200
C48         C  0.39399660  0.08319756  0.91798029     0.82800
O49         O  0.98865966  0.46839822  0.99193834    -0.79300
O50         O  0.40228313  0.45396747  0.90472020    -0.80800
O51         O  0.01609834  0.99754906  0.85277533    -0.80600
O52         O  0.06249564  0.04204419  0.90543849    -0.79200
Zn53       Zn  0.97542641  0.04775053  0.94529970     1.55700
O54         O  0.44973072  0.99669453  0.85087448    -0.80600
Cd55       Cd  0.03064483  0.99587423  0.89690419     1.59700
Cd56       Cd  0.98566520  0.45183833  0.94805412     1.59600
O57         O  0.06824668  0.44249737  0.90369214    -0.80600
O58         O  0.98085540  0.99965725  0.92164055    -1.91100
Cd59       Cd  0.43269498  0.00098699  0.89498654     1.59900
O60         O  0.03792851  0.41233629  0.93903664    -0.80600
O61         O  0.39338829  0.05418383  0.90026932    -0.79200
C62         C  0.98629968  0.00258114  0.00395740     0.83300
C63         C  0.05307391  0.07306984  0.92124352     0.82900
O64         O  0.42248687  0.08390318  0.93673574    -0.78200
C65         C  0.98363218  0.99655914  0.83802716     0.83800
O66         O  0.98036716  0.03469860  0.98890994    -0.78300
C67         C  0.06666673  0.41312764  0.92079690     0.83900
C68         C  0.40764973  0.42526907  0.92314361     0.84200
O69         O  0.43730135  0.42111463  0.94142131    -0.80700
C70         C  0.26182761  0.21764690  0.90824553     0.30300
C71         C  0.19882873  0.28013160  0.90823058     0.30300
C72         C  0.27046836  0.25583764  0.92346803    -0.05900
C73         C  0.24532339  0.23227530  0.87754240    -0.06700
C74         C  0.22246151  0.20992911  0.92320262    -0.06600
C75         C  0.23851193  0.28784694  0.92299411    -0.05900
C76         C  0.21441602  0.26529794  0.87751826    -0.06700
C77         C  0.19040613  0.24206644  0.92361263    -0.06600
C78         C  0.25595384  0.32199289  0.92461583    -0.32000
N79         N  0.29654626  0.31192375  0.92816310     0.14500
C80         C  0.30588427  0.27174411  0.92690579    -0.32000
H81         H  0.33648490  0.25565811  0.92539406     0.16500
C82         C  0.20772360  0.27678004  0.84844539    -0.30900
N83         N  0.23090749  0.24993321  0.83102938     0.13300
C84         C  0.25341447  0.22232379  0.84842560    -0.30900
C85         C  0.15488025  0.22602658  0.92509005    -0.31200
N86         N  0.16409384  0.18590302  0.92484756     0.13800
H87         H  0.12434277  0.24225364  0.92315779     0.16400
C88         C  0.20477254  0.17586022  0.92317497    -0.31200
H89         H  0.22020408  0.14584703  0.91937891     0.16400
H90         H  0.27478441  0.19747210  0.84031658     0.16400
H91         H  0.24061619  0.35208553  0.92072478     0.16500
H92         H  0.18805499  0.30304395  0.84044437     0.16400
O93         O  0.05722277  0.42233340  0.10320713    -0.78200
C94         C  0.42913298  0.43406467  0.12195192     0.82800
O95         O  0.48746249  0.03911161  0.04844383    -0.79300
O96         O  0.41570153  0.06289451  0.14025805    -0.80800
O97         O  0.03855342  0.01111688  0.18839532    -0.80600
O98         O  0.08946033  0.45319260  0.13740196    -0.79200
Zn99       Zn  0.50480082  0.45951242  0.09481652     1.55700
O100        O  0.47250659  0.00908923  0.18970350    -0.80600
Cd101      Cd  0.05147023  0.00689410  0.14334765     1.59700
Cd102      Cd  0.49402097  0.05576174  0.09211792     1.59600
O103        O  0.08133672  0.05373592  0.13144504    -0.80600
O104        O  0.50154860  0.00767926  0.11852182    -1.91100
Cd105      Cd  0.45470520  0.01044845  0.14595457     1.59900
O106        O  0.04381808  0.08588559  0.09530109    -0.80600
O107        O  0.42282907  0.46395366  0.13908546    -0.79200
C108        C  0.49106127  0.00495497  0.03619717     0.83300
C109        C  0.08693643  0.42334134  0.12087175     0.82900
O110        O  0.45936117  0.42924676  0.10455856    -0.78200
C111        C  0.50598188  0.01049201  0.20293796     0.83800
O112        O  0.49892427  0.47271634  0.05118555    -0.78300
C113        C  0.07494074  0.08159091  0.11226552     0.83900
C114        C  0.41506809  0.09311033  0.12363590     0.84200
O115        O  0.44225159  0.09486946  0.10417246    -0.80700
C116        C  0.21977282  0.28985484  0.13156700     0.30300
C117        C  0.28266230  0.22747853  0.13378181     0.30300
C118        C  0.25935785  0.29670567  0.11601704    -0.05900
C119        C  0.23637282  0.27792085  0.16272623    -0.06700
C120        C  0.21131454  0.25036481  0.11837216    -0.06600
C121        C  0.29148578  0.26457126  0.11733529    -0.05900
C122        C  0.26841027  0.24590046  0.16413991    -0.06700
C123        C  0.24325965  0.21887278  0.11963629    -0.06600
C124        C  0.32718978  0.28031592  0.11695672    -0.32000
N125        N  0.31852071  0.32033317  0.11462924     0.14500
C126        C  0.27765803  0.33058619  0.11546815    -0.32000
H127        H  0.26237868  0.36077482  0.11874631     0.16500
C128        C  0.28140983  0.24352475  0.19333954    -0.30900
N129        N  0.25787717  0.27197547  0.20936501     0.13300
C130        C  0.23088850  0.29357002  0.19076112    -0.30900
C131        C  0.22730151  0.18434646  0.11507292    -0.31200
N132        N  0.18679893  0.19402585  0.11030418     0.13800
H133        H  0.24322803  0.15425703  0.11791931     0.16000
C134        C  0.17657877  0.23416982  0.11247183    -0.31200
H135        H  0.14571867  0.24985004  0.11267641     0.16400
H136        H  0.20901814  0.31905025  0.19722981     0.16400
H137        H  0.35709323  0.26407984  0.12191253     0.16500
H138        H  0.30643217  0.22332348  0.20267148     0.16400
C139        C  0.47574577  0.05151072  0.40672692     0.30300
C140        C  0.04013264  0.49075235  0.40815718     0.30300
C141        C  0.46755345  0.01224470  0.41997548    -0.05900
C142        C  0.49340631  0.03740023  0.37619180    -0.06700
C143        C  0.01350566  0.06042534  0.42352141    -0.06600
C144        C  0.50035840  0.48176279  0.42156141    -0.05900
C145        C  0.02716909  0.00720246  0.37705556    -0.06700
C146        C  0.04691713  0.02942292  0.42375764    -0.06600
C147        C  0.48492135  0.44715813  0.42713924    -0.32000
N148        N  0.44382636  0.45580381  0.42845772     0.14500
C149        C  0.43292426  0.49528869  0.42323868    -0.32000
H150        H  0.40208635  0.00986383  0.41945097     0.16500
C151        C  0.03940421  0.49935521  0.34851025    -0.30900
N152        N  0.51258244  0.02175543  0.33001813     0.13300
C153        C  0.48403605  0.04434096  0.34667532    -0.30900
C154        C  0.08116316  0.04784158  0.42352740    -0.31200
N155        N  0.07007611  0.08765078  0.42533396     0.13800
H156        H  0.11190686  0.03350125  0.41930833     0.16400
C157        C  0.02911459  0.09583875  0.42440973    -0.31200
H158        H  0.01209644  0.12527533  0.42108794     0.16400
H159        H  0.45767476  0.06315036  0.33760790     0.16400
H160        H  0.50194620  0.41732407  0.42755150     0.16500
H161        H  0.06471663  0.47763589  0.34135061     0.16400
O162        O  0.21416365  0.19206098  0.43939120    -0.78200
C163        C  0.34251484  0.18539997  0.41648651     0.82800
O164        O  0.25445226  0.30014219  0.49266058    -0.79300
O165        O  0.33677183  0.31414696  0.40539417    -0.80800
O166        O  0.22296415  0.27243910  0.35128313    -0.80600
O167        O  0.17757531  0.22604973  0.40364644    -0.79200
Zn168      Zn  0.26262239  0.22068107  0.44641321     1.55700
O169        O  0.28914024  0.27336125  0.35078688    -0.80600
Cd170      Cd  0.20872687  0.27276612  0.39589818     1.59700
Cd171      Cd  0.25384863  0.31669199  0.44842108     1.59600
O172        O  0.17048777  0.32525331  0.40401662    -0.80600
O173        O  0.25747239  0.26894028  0.42214430    -1.91100
Cd174      Cd  0.30466328  0.26882762  0.39535462     1.59900
O175        O  0.20085645  0.35554809  0.43922204    -0.80600
O176        O  0.34279721  0.21618955  0.40068108    -0.79200
C177        C  0.25915216  0.26619724  0.50534675     0.83300
C178        C  0.18375525  0.19712387  0.42180414     0.82900
O179        O  0.31415578  0.18319001  0.43498911    -0.78200
C180        C  0.25558198  0.27359527  0.33709274     0.83800
O181        O  0.26368824  0.23381308  0.49054608    -0.78300
C182        C  0.17147516  0.35474759  0.42123525     0.83900
C183        C  0.33218090  0.34259037  0.42387989     0.84200
O184        O  0.30226930  0.34738848  0.44165379    -0.80700
C185        C  0.13267131  0.16473588  0.44817170    -0.08900
C186        C  0.15465561  0.16877859  0.42236011     0.07300
C187        C  0.14784198  0.14630973  0.39722082    -0.02700
C188        C  0.11959666  0.11990452  0.39830195    -0.07100
C189        C  0.09736317  0.11621640  0.42403967     0.06400
C190        C  0.10384994  0.13894567  0.44898690    -0.02100
Br191      Br  0.07482101  0.13424098  0.48481889    -0.01800
H192        H  0.13761523  0.18193656  0.46756452     0.10300
H193        H  0.11498771  0.10208850  0.37915567     0.08400
Br194      Br  0.17789547  0.14934130  0.36152731    -0.02300
C195        C  0.10327836  0.45450130  0.43386785    -0.08900
C196        C  0.07454182  0.45515985  0.41080992     0.07300
C197        C  0.07579418  0.42001961  0.39370168    -0.02700
C198        C  0.10762188  0.38838139  0.39756367    -0.07100
C199        C  0.13778059  0.38909170  0.41929490     0.06400
C200        C  0.13449092  0.42245597  0.43823676    -0.02100
Br201      Br  0.16954444  0.42645024  0.47162441    -0.01800
H202        H  0.10087318  0.47842161  0.44980174     0.10300
H203        H  0.10817896  0.36243793  0.38350974     0.08400
Br204      Br  0.03393365  0.41029521  0.36645771    -0.02300
C205        C  0.38509969  0.12484550  0.43689518    -0.08900
C206        C  0.37630280  0.15162273  0.41337522     0.07300
C207        C  0.40162294  0.14666686  0.38824757    -0.02700
C208        C  0.43309318  0.11440008  0.38663440    -0.07100
C209        C  0.44034114  0.08591154  0.40923321     0.06400
C210        C  0.41770708  0.09354440  0.43567102    -0.02100
Br211      Br  0.43183238  0.06621993  0.47239628    -0.01800
H212        H  0.36778090  0.12944348  0.45707855     0.10300
H213        H  0.45334979  0.11336429  0.36818591     0.08400
Br214      Br  0.39641110  0.18249170  0.35506062    -0.02300
C215        C  0.42314510  0.39534308  0.40814451    -0.08900
C216        C  0.41655626  0.42702177  0.42814899     0.07300
C217        C  0.38263131  0.43063069  0.44679336    -0.02700
C218        C  0.35593537  0.40279913  0.44509625    -0.07100
C219        C  0.36205790  0.37098786  0.42481847     0.06400
C220        C  0.39645884  0.36759984  0.40609241    -0.02100
Br221      Br  0.40971887  0.32692593  0.37666264    -0.01800
H222        H  0.44893848  0.39271950  0.39348039     0.10300
H223        H  0.33018282  0.40625733  0.45982823     0.08400
Br224      Br  0.37236381  0.47200677  0.47579749    -0.02300
C225        C  0.22059980  0.27657873  0.25606671    -0.08900
C226        C  0.25752578  0.27497048  0.24115429     0.07300
C227        C  0.29335474  0.27468182  0.25786017    -0.02700
C228        C  0.29187130  0.27445370  0.28879624    -0.07100
C229        C  0.25496066  0.27494987  0.30399508     0.06400
C230        C  0.21881110  0.27668827  0.28694759    -0.02100
Br231      Br  0.16546593  0.27936294  0.30344985    -0.01800
H232        H  0.19284327  0.27693827  0.24345258     0.10300
H233        H  0.31999407  0.27397999  0.30097398     0.08400
Br234      Br  0.34466048  0.27719952  0.23963689    -0.02300
C235        C  0.54271047  0.02012637  0.25013545    -0.08900
C236        C  0.50710020  0.01213416  0.23593523     0.07300
C237        C  0.97340045  0.50708502  0.25398228    -0.02700
C238        C  0.97602336  0.51043387  0.28469742    -0.07100
C239        C  0.51142268  0.01846818  0.29836524     0.06400
C240        C  0.54496423  0.02348947  0.28090416    -0.02100
Br241      Br  0.59331450  0.03805718  0.29792920    -0.01800
H242        H  0.56884623  0.02467970  0.23726655     0.10300
H243        H  0.95013627  0.50648369  0.29806363     0.08400
Br244      Br  0.92253729  0.49531646  0.23892316    -0.02300
C245        C  0.12063547  0.12239791  0.13720394    -0.08900
C246        C  0.10395817  0.11048821  0.11074019     0.07300
C247        C  0.11571248  0.12626892  0.08384772    -0.02700
C248        C  0.14252736  0.15425347  0.08398930    -0.07100
C249        C  0.15863488  0.16618156  0.11053852     0.06400
C250        C  0.14787557  0.14973394  0.13721669    -0.02100
Br251      Br  0.17003368  0.16382534  0.17413490    -0.01800
H252        H  0.11230231  0.11052004  0.15806569     0.10300
H253        H  0.15162236  0.16610094  0.06333887     0.08400
Br254      Br  0.09946887  0.10790606  0.04634171    -0.02300
C255        C  0.11716839  0.35913066  0.14369981    -0.08900
C256        C  0.11931231  0.38872908  0.12255426     0.07300
C257        C  0.15207424  0.38461415  0.10309669    -0.02700
C258        C  0.18319257  0.35216828  0.10586787    -0.07100
C259        C  0.18352097  0.32375854  0.12869965     0.06400
C260        C  0.14825314  0.32631940  0.14651069    -0.02100
Br261      Br  0.13838647  0.28553867  0.17372118    -0.01800
H262        H  0.09089166  0.36135843  0.15790560     0.10300
H263        H  0.20678262  0.34917418  0.08944700     0.08400
Br264      Br  0.15556373  0.42273418  0.07237157    -0.02300
C265        C  0.36716525  0.14883180  0.10173325    -0.08900
C266        C  0.38145533  0.12684192  0.12681215     0.07300
C267        C  0.36212420  0.13657605  0.15405375    -0.02700
C268        C  0.32956821  0.16783645  0.15567144    -0.07100
C269        C  0.31684571  0.19186249  0.13112979     0.06400
C270        C  0.33489491  0.18041343  0.10343084    -0.02100
Br271      Br  0.31621034  0.20456689  0.06636881    -0.01800
H272        H  0.38057806  0.14080581  0.08043427     0.10300
H273        H  0.31344022  0.17178398  0.17609537     0.08400
Br274      Br  0.37948654  0.11000630  0.19045902    -0.02300
C275        C  0.40861237  0.37179974  0.10210321    -0.08900
C276        C  0.40082414  0.40427189  0.12168995     0.07300
C277        C  0.36597767  0.40735317  0.13985794    -0.02700
C278        C  0.33968747  0.37931646  0.13727614    -0.07100
C279        C  0.34722954  0.34758532  0.11729864     0.06400
C280        C  0.38244216  0.34361654  0.09988764    -0.02100
Br281      Br  0.39533599  0.30170495  0.07151038    -0.01800
H282        H  0.43504796  0.36834657  0.08801942     0.10300
H283        H  0.31315885  0.38209603  0.15123508     0.08400
Br284      Br  0.35156798  0.44818392  0.16899828    -0.02300
C285        C  0.10943176  0.10359288  0.89969895    -0.08900
C286        C  0.08072853  0.10325677  0.92229243     0.07300
C287        C  0.07945597  0.13169633  0.94528134    -0.02700
C288        C  0.10653572  0.15913618  0.94525004    -0.07100
C289        C  0.13542804  0.15874916  0.92302502     0.06400
C290        C  0.13651787  0.13103958  0.89984922    -0.02100
Br291      Br  0.17284019  0.13078791  0.86710629    -0.01800
H292        H  0.11065573  0.08264506  0.88159956     0.10300
H293        H  0.10587156  0.18035745  0.96313344     0.08400
Br294      Br  0.04346506  0.13403830  0.97838418    -0.02300
C295        C  0.36318301  0.14664700  0.89466700    -0.08900
C296        C  0.36127264  0.11749386  0.91615887     0.07300
C297        C  0.32929459  0.12257319  0.93632907    -0.02700
C298        C  0.29846659  0.15529266  0.93364945    -0.07100
C299        C  0.29776918  0.18324594  0.91043147     0.06400
C300        C  0.33277646  0.18005496  0.89225603    -0.02100
Br301      Br  0.34468725  0.22114405  0.86604694    -0.01800
H302        H  0.38923696  0.14397609  0.88021608     0.10300
H303        H  0.27535439  0.15892750  0.95045546     0.08400
Br304      Br  0.32642001  0.08560328  0.96794312    -0.02300
C305        C  0.09795329  0.35211032  0.89521277    -0.08900
C306        C  0.09877857  0.37855914  0.91871067     0.07300
C307        C  0.12960379  0.37105038  0.93999044    -0.02700
C308        C  0.16125609  0.33939858  0.93599136    -0.07100
C309        C  0.16299667  0.31435177  0.91092487     0.06400
C310        C  0.12835742  0.31899729  0.89202542    -0.02100
Br311      Br  0.11607326  0.27950977  0.86449869    -0.01800
H312        H  0.07247715  0.35635068  0.87995335     0.10300
H313        H  0.18418386  0.33407745  0.95312088     0.08400
Br314      Br  0.12937299  0.40294239  0.97495776    -0.02300
C315        C  0.32338623  0.36554200  0.90273168    -0.08900
C316        C  0.32503537  0.33935054  0.92666947     0.07300
C317        C  0.35393322  0.34100553  0.94907796    -0.02700
C318        C  0.38042924  0.36903093  0.94746236    -0.07100
C319        C  0.37886687  0.39582773  0.92354877     0.06400
C320        C  0.34997205  0.39336757  0.90074713    -0.02100
Br321      Br  0.34517966  0.42541689  0.86556319    -0.01800
H322        H  0.30138775  0.36393094  0.88526442     0.10300
H323        H  0.40201934  0.37007158  0.96528031     0.08400
Br324      Br  0.35653398  0.30701656  0.98302134    -0.02300
C325        C  0.45807641  0.50052584  0.75542086    -0.08900
C326        C  0.99705619  0.49578668  0.74297914     0.07300
C327        C  0.03082515  0.98886623  0.76204857    -0.02700
C328        C  0.02537542  0.98837836  0.79253896    -0.07100
C329        C  0.98645088  0.99494197  0.80520556     0.06400
C330        C  0.45250602  0.50012758  0.78603840    -0.02100
Br331      Br  0.39726633  0.50882316  0.79948107    -0.01800
H332        H  0.43160418  0.50544525  0.74114534     0.10300
H333        H  0.05222938  0.98363503  0.80645988     0.08400
Br334      Br  0.08589548  0.98312796  0.74866835    -0.02300
C335        C  0.26755301  0.26685407  0.78737552    -0.08900
C336        C  0.23419829  0.25258088  0.79958569     0.07300
C337        C  0.20459425  0.24089294  0.78084016    -0.02700
C338        C  0.20786239  0.24480309  0.75023671    -0.07100
C339        C  0.24122406  0.25926232  0.73764369     0.06400
C340        C  0.27156870  0.27007756  0.75675804    -0.02100
Br341      Br  0.31883566  0.29042406  0.74316640    -0.01800
H342        H  0.29054609  0.27558564  0.80187432     0.10300
H343        H  0.18468618  0.23544418  0.73622598     0.08400
Br344      Br  0.16081909  0.21702216  0.79628179    -0.02300
C345        C  0.38506695  0.12275170  0.60614334    -0.08900
C346        C  0.37325830  0.14678308  0.63065117     0.07300
C347        C  0.39519334  0.13884802  0.65738157    -0.02700
C348        C  0.42770560  0.10739022  0.65901738    -0.07100
C349        C  0.43820613  0.08176583  0.63503222     0.06400
C350        C  0.41726437  0.09107746  0.60786454    -0.02100
Br351      Br  0.43148262  0.06326345  0.57146604    -0.01800
H352        H  0.36955478  0.12903836  0.58520246     0.10300
H353        H  0.44540163  0.10421161  0.67906605     0.08400
Br354      Br  0.38168790  0.16815826  0.69318432    -0.02300
C355        C  0.14107281  0.41775840  0.64187622    -0.08900
C356        C  0.13696381  0.38708880  0.62206830     0.07300
C357        C  0.10135061  0.38905274  0.60530358    -0.02700
C358        C  0.06974735  0.42081886  0.60918200    -0.07100
C359        C  0.07185718  0.45051592  0.63073649     0.06400
C360        C  0.10937351  0.44958791  0.64609444    -0.02100
Br361      Br  0.12109392  0.49073499  0.67237831    -0.01800
H362        H  0.16900957  0.41668224  0.65441501     0.10300
H363        H  0.04368159  0.42217681  0.59474470     0.08400
Br364      Br  0.09469961  0.34864836  0.57692920    -0.02300
C365        C  0.34539603  0.40140175  0.60955718    -0.08900
C366        C  0.35273486  0.36795329  0.62827421     0.07300
C367        C  0.38684713  0.36425660  0.64759580    -0.02700
C368        C  0.41298019  0.39268784  0.64685690    -0.07100
C369        C  0.40594767  0.42530076  0.62758444     0.06400
C370        C  0.37139075  0.42984193  0.60911452    -0.02100
Br371      Br  0.35957957  0.47258792  0.58115475    -0.01800
H372        H  0.31949233  0.40538488  0.59471242     0.10300
H373        H  0.43921768  0.38927018  0.66138188     0.08400
Br374      Br  0.40103951  0.32134483  0.67527477    -0.02300
C375        C  0.11184471  0.11758595  0.58690042    -0.08900
C376        C  0.09423023  0.10714749  0.61310876     0.07300
C377        C  0.10291964  0.12546185  0.63970373    -0.02700
C378        C  0.12927724  0.15365387  0.63979874    -0.07100
C379        C  0.14746782  0.16396707  0.61361212     0.06400
C380        C  0.13805903  0.14599469  0.58686783    -0.02100
Br381      Br  0.15729700  0.16126145  0.54941290    -0.01800
H382        H  0.10440058  0.10414071  0.56633936     0.10300
H383        H  0.13614152  0.16705857  0.66053056     0.08400
Br384      Br  0.08013226  0.11204936  0.67640634    -0.02300
O385        O  0.19910942  0.85200863  0.60413278    -0.78200
C386        C  0.32456186  0.83801992  0.62682454     0.82800
O387        O  0.26192108  0.73100019  0.55107601    -0.79300
O388        O  0.33804342  0.71061247  0.64384511    -0.80800
O389        O  0.21144688  0.76358775  0.68958350    -0.80600
O390        O  0.16457882  0.82236067  0.63730407    -0.79200
Zn391      Zn  0.25037134  0.81245515  0.59629938     1.55700
O392        O  0.27821334  0.76087895  0.69291726    -0.80600
Cd393      Cd  0.20044126  0.76804284  0.64438253     1.59700
Cd394      Cd  0.25867317  0.71610289  0.59562054     1.59600
O395        O  0.16877254  0.72259458  0.63261460    -0.80600
O396        O  0.25150239  0.76515515  0.62093009    -1.91100
Cd397      Cd  0.29734578  0.76194087  0.64978169     1.59900
O398        O  0.20905826  0.68631812  0.60022511    -0.80600
O399        O  0.32785210  0.80966288  0.64537370    -0.79200
C400        C  0.25836471  0.76474160  0.53811254     0.83300
C401        C  0.16869608  0.85198188  0.62105727     0.82900
O402        O  0.29731880  0.84136850  0.60667563    -0.78200
C403        C  0.24382485  0.76152197  0.70501949     0.83800
O404        O  0.25349682  0.79738272  0.55261176    -0.78300
C405        C  0.17648928  0.69279797  0.61531294     0.83900
C406        C  0.33893947  0.68013660  0.62745679     0.84200
O407        O  0.31128935  0.67771572  0.60816406    -0.80700
C408        C  0.03566537  0.98436173  0.63447306     0.30300
C409        C  0.47299578  0.54653061  0.63740016     0.30300
C410        C  0.49400668  0.97573022  0.62320524    -0.05900
C411        C  0.02444280  0.99984371  0.66580741    -0.06700
C412        C  0.04171167  0.52232705  0.61753281    -0.06600
C413        C  0.46215413  0.00781839  0.62485005    -0.05900
C414        C  0.49245968  0.53198626  0.66745984    -0.06700
C415        C  0.00958789  0.55401405  0.61942761    -0.06600
C416        C  0.42655492  0.99237221  0.62733063    -0.32000
N417        N  0.43497948  0.95226209  0.62612385     0.14500
C418        C  0.47588159  0.94181124  0.62537225    -0.32000
H419        H  0.49149797  0.91164265  0.62830198     0.16500
C420        C  0.47804162  0.53166978  0.69599838    -0.30900
N421        N  0.00102456  0.00267512  0.71181728     0.13300
C422        C  0.02781527  0.98160103  0.69310930    -0.30900
C423        C  0.02591177  0.58865330  0.61677240    -0.31200
N424        N  0.06623949  0.57934694  0.61225297     0.13800
H425        H  0.01034474  0.61843181  0.62133677     0.16400
C426        C  0.07637098  0.53922879  0.61293005    -0.31200
H427        H  0.10731135  0.52376518  0.61336457     0.16400
H428        H  0.04669113  0.95356695  0.69839381     0.16400
H429        H  0.39699859  0.00913148  0.63232319     0.16500
H430        H  0.45098520  0.54962175  0.70454026     0.16400
O431        O  0.02043451  0.57859611  0.93605268    -0.78200
C432        C  0.39405259  0.58305465  0.91811980     0.82800
O433        O  0.98872120  0.96843964  0.99183494    -0.79300
O434        O  0.40222202  0.95399524  0.90468509    -0.80800
O435        O  0.01625097  0.49747075  0.85278408    -0.80600
O436        O  0.06251667  0.54206831  0.90543004    -0.79200
Zn437      Zn  0.97550543  0.54767701  0.94538415     1.55700
O438        O  0.44989421  0.49660599  0.85084795    -0.80600
Cd439      Cd  0.03067708  0.49588199  0.89694006     1.59700
Cd440      Cd  0.98570082  0.95183442  0.94796777     1.59600
O441        O  0.06827136  0.94246434  0.90359871    -0.80600
O442        O  0.98089826  0.49962569  0.92169020    -1.91100
Cd443      Cd  0.43280323  0.50092790  0.89498382     1.59900
O444        O  0.03797585  0.91229754  0.93894273    -0.80600
O445        O  0.39352013  0.55412635  0.90031556    -0.79200
C446        C  0.98633429  0.50252982  0.00406158     0.83300
C447        C  0.05306384  0.57311069  0.92121057     0.82900
O448        O  0.42250207  0.58372089  0.93691314    -0.78200
C449        C  0.98381315  0.49645140  0.83801164     0.83800
O450        O  0.98051397  0.53464001  0.98900470    -0.78300
C451        C  0.06671460  0.91308403  0.92070063     0.83900
C452        C  0.40766511  0.92526107  0.92307473     0.84200
O453        O  0.43734001  0.92111025  0.94133312    -0.80700
C454        C  0.26196436  0.71754046  0.90835576     0.30300
C455        C  0.19897990  0.78004613  0.90829961     0.30300
C456        C  0.27061005  0.75572967  0.92357130    -0.05900
C457        C  0.24549215  0.73215565  0.87764695    -0.06700
C458        C  0.22258769  0.70984162  0.92329919    -0.06600
C459        C  0.23865741  0.78775704  0.92307434    -0.05900
C460        C  0.21459637  0.76518873  0.87760145    -0.06700
C461        C  0.19054033  0.74199053  0.92369029    -0.06600
C462        C  0.25613101  0.82189080  0.92458836    -0.32000
N463        N  0.29672106  0.81180971  0.92810555     0.14500
C464        C  0.30604135  0.77162963  0.92691998    -0.32000
H465        H  0.33663434  0.75552805  0.92539575     0.16500
C466        C  0.20792343  0.77664570  0.84852478    -0.30900
N467        N  0.23112083  0.74978038  0.83113119     0.13300
C468        C  0.25359090  0.72216803  0.84854034    -0.30900
C469        C  0.15501217  0.72596091  0.92515015    -0.31200
N470        N  0.16420856  0.68583708  0.92489472     0.13800
H471        H  0.12448007  0.74219765  0.92321654     0.16400
C472        C  0.20489237  0.67577699  0.92326234    -0.31200
H473        H  0.22033241  0.64576061  0.91948946     0.16400
H474        H  0.27492663  0.69728112  0.84044416     0.16400
H475        H  0.24081263  0.85197626  0.92064046     0.16500
H476        H  0.18824517  0.80289294  0.84050585     0.16400
O477        O  0.05724631  0.92232276  0.10310250    -0.78200
C478        C  0.42913158  0.93416102  0.12182664     0.82800
O479        O  0.48743419  0.53905149  0.04856787    -0.79300
O480        O  0.41557166  0.56267190  0.14050943    -0.80800
O481        O  0.03854492  0.51101088  0.18853911    -0.80600
O482        O  0.08944561  0.95312429  0.13735200    -0.79200
Zn483      Zn  0.50484737  0.95955832  0.09469575     1.55700
O484        O  0.47252143  0.50890229  0.18989495    -0.80600
Cd485      Cd  0.05138337  0.50687539  0.14347552     1.59700
Cd486      Cd  0.49380276  0.55568268  0.09227930     1.59600
O487        O  0.08107384  0.55383732  0.13161983    -0.80600
O488        O  0.50145595  0.50760238  0.11867333    -1.91100
Cd489      Cd  0.45468028  0.51029239  0.14615836     1.59900
O490        O  0.04337345  0.58607549  0.09561251    -0.80600
O491        O  0.42280428  0.96410780  0.13890860    -0.79200
C492        C  0.49105077  0.50489924  0.03631094     0.83300
C493        C  0.08692496  0.92328405  0.12080895     0.82900
O494        O  0.45937789  0.92930616  0.10444869    -0.78200
C495        C  0.50600311  0.51034277  0.20310683     0.83800
O496        O  0.49897041  0.97277286  0.05107024    -0.78300
C497        C  0.07453010  0.58180817  0.11254046     0.83900
C498        C  0.41479760  0.59283278  0.12381584     0.84200
O499        O  0.44190662  0.59458911  0.10429733    -0.80700
C500        C  0.21980128  0.78984507  0.13160929     0.30300
C501        C  0.28260225  0.72740132  0.13386483     0.30300
C502        C  0.25943512  0.79666808  0.11612095    -0.05900
C503        C  0.23631203  0.77784987  0.16278119    -0.06700
C504        C  0.21131743  0.75040374  0.11835103    -0.06600
C505        C  0.29152896  0.76450703  0.11746756    -0.05900
C506        C  0.26829385  0.74578606  0.16421303    -0.06700
C507        C  0.24321560  0.71884963  0.11966326    -0.06600
C508        C  0.32726031  0.78022420  0.11712222    -0.32000
N509        N  0.31862878  0.82024777  0.11477440     0.14500
C510        C  0.27776366  0.83053003  0.11557643    -0.32000
H511        H  0.26249282  0.86073071  0.11881168     0.16500
C512        C  0.28124398  0.74336096  0.19341918    -0.30900
N513        N  0.25776338  0.77186414  0.20943577     0.13300
C514        C  0.23083954  0.79351214  0.19081175    -0.30900
C515        C  0.22708881  0.68433687  0.11546437    -0.31200
N516        N  0.18657872  0.69408552  0.11078211     0.13800
H517        H  0.24293396  0.65424510  0.11847013     0.16000
C518        C  0.17649224  0.73425143  0.11268847    -0.31200
H519        H  0.14566436  0.75000922  0.11288549     0.16400
H520        H  0.20903691  0.81905648  0.19725752     0.16400
H521        H  0.35715134  0.76396427  0.12208372     0.16500
H522        H  0.30620952  0.72307900  0.20274983     0.16400
C523        C  0.47578278  0.55155495  0.40686463     0.30300
C524        C  0.04013177  0.99074680  0.40799860     0.30300
C525        C  0.46756096  0.51230987  0.42012969    -0.05900
C526        C  0.49344503  0.53741827  0.37633384    -0.06700
C527        C  0.01355622  0.56045700  0.42364544    -0.06600
C528        C  0.50036747  0.98172209  0.42139589    -0.05900
C529        C  0.02718836  0.50720026  0.37721494    -0.06700
C530        C  0.04695436  0.52943010  0.42389383    -0.06600
C531        C  0.48497975  0.94711686  0.42706800    -0.32000
N532        N  0.44388552  0.95574034  0.42845058     0.14500
C533        C  0.43294166  0.99521017  0.42318255    -0.32000
H534        H  0.40208825  0.50996505  0.41946003     0.16500
C535        C  0.03934082  0.99936680  0.34833604    -0.30900
N536        N  0.51268939  0.52175522  0.33017377     0.13300
C537        C  0.48413136  0.54436501  0.34681042    -0.30900
C538        C  0.08121562  0.54782418  0.42358025    -0.31200
N539        N  0.07015702  0.58764084  0.42531077     0.13800
H540        H  0.11194590  0.53345122  0.41935857     0.16400
C541        C  0.02919757  0.59585371  0.42443870    -0.31200
H542        H  0.01219180  0.62528999  0.42109024     0.16400
H543        H  0.45779275  0.56318376  0.33772140     0.16400
H544        H  0.50202986  0.91729386  0.42750661     0.16500
H545        H  0.06465992  0.97767174  0.34115410     0.16400
O546        O  0.21418773  0.69207714  0.43944746    -0.78200
C547        C  0.34251694  0.68544717  0.41664885     0.82800
O548        O  0.25437081  0.80021881  0.49277419    -0.79300
O549        O  0.33672041  0.81415992  0.40552336    -0.80800
O550        O  0.22290836  0.77252713  0.35134981    -0.80600
O551        O  0.17763952  0.72600845  0.40365385    -0.79200
Zn552      Zn  0.26260153  0.72073161  0.44653411     1.55700
O553        O  0.28908073  0.77346440  0.35086994    -0.80600
Cd554      Cd  0.20871668  0.77277313  0.39596563     1.59700
Cd555      Cd  0.25378373  0.81674407  0.44851901     1.59600
O556        O  0.17042842  0.82520969  0.40408622    -0.80600
O557        O  0.25743645  0.76897845  0.42224399    -1.91100
Cd558      Cd  0.30461236  0.76885887  0.39544933     1.59900
O559        O  0.20078221  0.85557592  0.43926257    -0.80600
O560        O  0.34274938  0.71621159  0.40080361    -0.79200
C561        C  0.25907332  0.76627916  0.50547036     0.83300
C562        C  0.18382308  0.69709594  0.42181970     0.82900
O563        O  0.31417756  0.68324781  0.43516987    -0.78200
C564        C  0.25552051  0.77373237  0.33716785     0.83800
O565        O  0.26360639  0.73388998  0.49067384    -0.78300
C566        C  0.17140529  0.85473297  0.42127587     0.83900
C567        C  0.33215445  0.84259913  0.42401223     0.84200
O568        O  0.30223039  0.84743091  0.44177630    -0.80700
C569        C  0.13251628  0.66493538  0.44807830    -0.08900
C570        C  0.15475605  0.66873349  0.42235570     0.07300
C571        C  0.14820552  0.64603329  0.39728339    -0.02700
C572        C  0.11995240  0.61963298  0.39834946    -0.07100
C573        C  0.09746126  0.61618693  0.42400287     0.06400
C574        C  0.10369831  0.63915023  0.44887653    -0.02100
Br575      Br  0.07436331  0.63475146  0.48461196    -0.01800
H576        H  0.13726616  0.68231798  0.46741614     0.10300
H577        H  0.11553341  0.60164156  0.37925971     0.08400
Br578      Br  0.17861810  0.64876842  0.36172192    -0.02300
C579        C  0.10322161  0.95451369  0.43377207    -0.08900
C580        C  0.07454889  0.95516822  0.41067118     0.07300
C581        C  0.07581864  0.92000918  0.39358362    -0.02700
C582        C  0.10761841  0.88835674  0.39750410    -0.07100
C583        C  0.13771713  0.88907312  0.41928191     0.06400
C584        C  0.13439177  0.92245220  0.43820663    -0.02100
Br585      Br  0.16931077  0.92642843  0.47167366    -0.01800
H586        H  0.10078182  0.97843958  0.44970175     0.10300
H587        H  0.10819724  0.86239824  0.38346313     0.08400
Br588      Br  0.03398793  0.91027114  0.36631965    -0.02300
C589        C  0.38519475  0.62494131  0.43708679    -0.08900
C590        C  0.37633259  0.65168332  0.41354893     0.07300
C591        C  0.40160530  0.64669784  0.38839689    -0.02700
C592        C  0.43307330  0.61442714  0.38676802    -0.07100
C593        C  0.44038625  0.58597353  0.40938581     0.06400
C594        C  0.41780858  0.59363913  0.43584688    -0.02100
Br595      Br  0.43201108  0.56632303  0.47256576    -0.01800
H596        H  0.36791669  0.62956059  0.45728650     0.10300
H597        H  0.45328119  0.61336977  0.36829419     0.08400
Br598      Br  0.39634334  0.68250091  0.35519683    -0.02300
C599        C  0.42322005  0.89520117  0.40827259    -0.08900
C600        C  0.41663394  0.92693874  0.42822484     0.07300
C601        C  0.38270793  0.93060289  0.44687385    -0.02700
C602        C  0.35598049  0.90279517  0.44520364    -0.07100
C603        C  0.36208194  0.87094735  0.42495646     0.06400
C604        C  0.39651621  0.86747282  0.40625713    -0.02100
Br605      Br  0.40981853  0.82668396  0.37691736    -0.01800
H606        H  0.44902214  0.89252220  0.39361375     0.10300
H607        H  0.33021675  0.90630472  0.45992598     0.08400
Br608      Br  0.37247521  0.97202656  0.47584409    -0.02300
C609        C  0.22047190  0.77710564  0.25615048    -0.08900
C610        C  0.25745181  0.77495658  0.24122510     0.07300
C611        C  0.29334385  0.77430956  0.25792780    -0.02700
C612        C  0.29186044  0.77414909  0.28886376    -0.07100
C613        C  0.25489309  0.77513153  0.30407089     0.06400
C614        C  0.21868402  0.77736463  0.28703275    -0.02100
Br615      Br  0.16524705  0.78109155  0.30355694    -0.01800
H616        H  0.19265382  0.77781386  0.24355082     0.10300
H617        H  0.32003336  0.77334063  0.30103681     0.08400
Br618      Br  0.34476919  0.77630442  0.23972131    -0.02300
C619        C  0.54284924  0.51980557  0.25028766    -0.08900
C620        C  0.50715878  0.51199055  0.23610368     0.07300
C621        C  0.97338770  0.00703130  0.25379853    -0.02700
C622        C  0.97598221  0.01034550  0.28452083    -0.07100
C623        C  0.51153138  0.51840369  0.29852576     0.06400
C624        C  0.54513538  0.52319616  0.28105359    -0.02100
Br625      Br  0.59364213  0.53746538  0.29804746    -0.01800
H626        H  0.56903028  0.52419176  0.23740817     0.10300
H627        H  0.95013551  0.00623979  0.29787818     0.08400
Br628      Br  0.92265225  0.99498899  0.23869898    -0.02300
C629        C  0.12080856  0.62198747  0.13751831    -0.08900
C630        C  0.10345362  0.61081913  0.11108148     0.07300
C631        C  0.11445634  0.62745156  0.08428792    -0.02700
C632        C  0.14139322  0.65530599  0.08451036    -0.07100
C633        C  0.15829930  0.66636068  0.11101461     0.06400
C634        C  0.14808165  0.64929415  0.13760114    -0.02100
Br635      Br  0.17078057  0.66269705  0.17450845    -0.01800
H636        H  0.11295097  0.60958471  0.15831648     0.10300
H637        H  0.14994580  0.66776164  0.06392742     0.08400
Br638      Br  0.09688987  0.61063418  0.04669289    -0.02300
C639        C  0.11716907  0.85909633  0.14368825    -0.08900
C640        C  0.11928916  0.88865353  0.12250538     0.07300
C641        C  0.15204463  0.88450544  0.10303860    -0.02700
C642        C  0.18322439  0.85212132  0.10587512    -0.07100
C643        C  0.18356122  0.82375491  0.12873471     0.06400
C644        C  0.14826849  0.82630157  0.14652469    -0.02100
Br645      Br  0.13836516  0.78550727  0.17372165    -0.01800
H646        H  0.09089011  0.86133148  0.15789243     0.10300
H647        H  0.20684420  0.84911945  0.08947543     0.08400
Br648      Br  0.15540453  0.92247323  0.07218592    -0.02300
C649        C  0.36702924  0.64862513  0.10189481    -0.08900
C650        C  0.38113583  0.62652571  0.12696731     0.07300
C651        C  0.36165501  0.63620458  0.15416794    -0.02700
C652        C  0.32920094  0.66757094  0.15575411    -0.07100
C653        C  0.31671897  0.69173047  0.13123556     0.06400
C654        C  0.33485587  0.68029651  0.10356392    -0.02100
Br655      Br  0.31643417  0.70459404  0.06649437    -0.01800
H656        H  0.38053387  0.64063964  0.08061701     0.10300
H657        H  0.31295246  0.67151691  0.17613809     0.08400
Br658      Br  0.37864469  0.60942947  0.19056718    -0.02300
C659        C  0.40863612  0.87181175  0.10207075    -0.08900
C660        C  0.40085306  0.90432263  0.12162666     0.07300
C661        C  0.36606862  0.90736508  0.13985608    -0.02700
C662        C  0.33982551  0.87926742  0.13735762    -0.07100
C663        C  0.34735206  0.84750306  0.11740643     0.06400
C664        C  0.38251855  0.84356031  0.09994390    -0.02100
Br665      Br  0.39541229  0.80158927  0.07161489    -0.01800
H666        H  0.43502933  0.86837737  0.08794542     0.10300
H667        H  0.31333385  0.88203471  0.15135343     0.08400
Br668      Br  0.35168775  0.94822529  0.16897655    -0.02300
C669        C  0.10953741  0.60353914  0.89971561    -0.08900
C670        C  0.08068500  0.60333962  0.92222681     0.07300
C671        C  0.07926063  0.63193526  0.94511932    -0.02700
C672        C  0.10642983  0.65928599  0.94513864    -0.07100
C673        C  0.13550689  0.65872176  0.92302836     0.06400
C674        C  0.13666135  0.63095461  0.89988654    -0.02100
Br675      Br  0.17307520  0.63063504  0.86719092    -0.01800
H676        H  0.11084686  0.58251325  0.88166179     0.10300
H677        H  0.10566009  0.68060580  0.96296471     0.08400
Br678      Br  0.04285461  0.63470884  0.97799533    -0.02300
C679        C  0.36318674  0.64638338  0.89472660    -0.08900
C680        C  0.36133900  0.61735104  0.91631489     0.07300
C681        C  0.32948628  0.62259370  0.93659261    -0.02700
C682        C  0.29864383  0.65530055  0.93386900    -0.07100
C683        C  0.29788966  0.68313180  0.91056309     0.06400
C684        C  0.33284304  0.67983277  0.89232555    -0.02100
Br685      Br  0.34484548  0.72084756  0.86608498    -0.01800
H686        H  0.38918096  0.64361266  0.88021303     0.10300
H687        H  0.27556264  0.65903364  0.95070005     0.08400
Br688      Br  0.32681764  0.58588773  0.96841340    -0.02300
C689        C  0.09800866  0.85192328  0.89523757    -0.08900
C690        C  0.09887245  0.87852170  0.91863966     0.07300
C691        C  0.12979404  0.87117216  0.93986156    -0.02700
C692        C  0.16145011  0.83950293  0.93591572    -0.07100
C693        C  0.16313714  0.81428817  0.91094541     0.06400
C694        C  0.12845482  0.81882499  0.89208552    -0.02100
Br695      Br  0.11624381  0.77925379  0.86460097    -0.01800
H696        H  0.07249146  0.85605520  0.88001399     0.10300
H697        H  0.18441734  0.83430213  0.95302307     0.08400
Br698      Br  0.12969402  0.90330790  0.97469258    -0.02300
C699        C  0.32364033  0.86529801  0.90257597    -0.08900
C700        C  0.32521308  0.83921976  0.92657692     0.07300
C701        C  0.35399297  0.84100955  0.94904298    -0.02700
C702        C  0.38044369  0.86907054  0.94743074    -0.07100
C703        C  0.37894655  0.89576918  0.92346356     0.06400
C704        C  0.35018722  0.89315964  0.90059443    -0.02100
Br705      Br  0.34555846  0.92503592  0.86532603    -0.01800
H706        H  0.30172683  0.86357796  0.88506775     0.10300
H707        H  0.40193620  0.87022698  0.96529661     0.08400
Br708      Br  0.35646775  0.80716813  0.98306089    -0.02300
C709        C  0.45779030  0.00081045  0.75546824    -0.08900
C710        C  0.99677048  0.99591326  0.74301482     0.07300
C711        C  0.03110242  0.48883834  0.76202680    -0.02700
C712        C  0.02563101  0.48836975  0.79252466    -0.07100
C713        C  0.98668823  0.49479790  0.80518020     0.06400
C714        C  0.45224340  0.00044522  0.78608810    -0.02100
Br715      Br  0.39702129  0.00948042  0.79957279    -0.01800
H716        H  0.43130979  0.00584268  0.74120499     0.10300
H717        H  0.05247474  0.48373147  0.80645828     0.08400
Br718      Br  0.08616651  0.48314241  0.74863646    -0.02300
C719        C  0.26775063  0.76665190  0.78746013    -0.08900
C720        C  0.23441125  0.75237569  0.79968985     0.07300
C721        C  0.20480709  0.74064534  0.78097063    -0.02700
C722        C  0.20802785  0.74456089  0.75036648    -0.07100
C723        C  0.24135131  0.75906207  0.73775455     0.06400
C724        C  0.27172571  0.76987490  0.75684187    -0.02100
Br725      Br  0.31897003  0.79023170  0.74321035    -0.01800
H726        H  0.29075354  0.77539812  0.80194302     0.10300
H727        H  0.18484317  0.73518772  0.73637127     0.08400
Br728      Br  0.16109498  0.71672769  0.79646377    -0.02300
C729        C  0.38520206  0.62292216  0.60615516    -0.08900
C730        C  0.37327017  0.64679634  0.63071831     0.07300
C731        C  0.39509434  0.63871770  0.65747801    -0.02700
C732        C  0.42762755  0.60727525  0.65908717    -0.07100
C733        C  0.43824441  0.58178736  0.63504156     0.06400
C734        C  0.41741469  0.59125606  0.60785003    -0.02100
Br735      Br  0.43184957  0.56370039  0.57138513    -0.01800
H736        H  0.36978002  0.62933540  0.58519332     0.10300
H737        H  0.44524776  0.60401747  0.67916467     0.08400
Br738      Br  0.38138076  0.66780113  0.69334745    -0.02300
C739        C  0.14106004  0.91786562  0.64208206    -0.08900
C740        C  0.13700004  0.88716658  0.62228815     0.07300
C741        C  0.10138718  0.88905018  0.60553409    -0.02700
C742        C  0.06973407  0.92076835  0.60940281    -0.07100
C743        C  0.07181187  0.95051402  0.63092202     0.06400
C744        C  0.10931885  0.94966150  0.64627919    -0.02100
Br745      Br  0.12096679  0.99088372  0.67252325    -0.01800
H746        H  0.16899139  0.91684459  0.65461893     0.10300
H747        H  0.04366035  0.92205913  0.59497987     0.08400
Br748      Br  0.09481817  0.84859712  0.57717877    -0.02300
C749        C  0.34544511  0.90136332  0.60971845    -0.08900
C750        C  0.35266157  0.86801611  0.62853826     0.07300
C751        C  0.38663692  0.86442453  0.64798586    -0.02700
C752        C  0.41278799  0.89283551  0.64724814    -0.07100
C753        C  0.40588983  0.92532134  0.62785985     0.06400
C754        C  0.37145398  0.92978149  0.60927955    -0.02100
Br755      Br  0.35986929  0.97236660  0.58116716    -0.01800
H756        H  0.31964459  0.90527103  0.59477930     0.10300
H757        H  0.43893586  0.88950117  0.66185716     0.08400
Br758      Br  0.40061033  0.82170284  0.67585084    -0.02300
C759        C  0.11174707  0.61784503  0.58693157    -0.08900
C760        C  0.09422231  0.60726780  0.61313637     0.07300
C761        C  0.10296988  0.62546756  0.63976498    -0.02700
C762        C  0.12928323  0.65370124  0.63989506    -0.07100
C763        C  0.14739984  0.66413499  0.61371256     0.06400
C764        C  0.13794723  0.64626538  0.58693894    -0.02100
Br765      Br  0.15715068  0.66166253  0.54950838    -0.01800
H766        H  0.10426351  0.60448185  0.56634764     0.10300
H767        H  0.13619472  0.66702129  0.66064924     0.08400
Br768      Br  0.08035215  0.61180083  0.67646426    -0.02300
O769        O  0.69908814  0.35192502  0.60394626    -0.78200
C770        C  0.82460203  0.33797504  0.62660339     0.82800
O771        O  0.76197367  0.23091135  0.55094485    -0.79300
O772        O  0.83799079  0.21059848  0.64374583    -0.80800
O773        O  0.71141344  0.26365228  0.68943753    -0.80600
O774        O  0.66449539  0.32225055  0.63706237    -0.79200
Zn775      Zn  0.75036955  0.31239060  0.59614595     1.55700
O776        O  0.77817065  0.26100641  0.69281883    -0.80600
Cd777      Cd  0.70042306  0.26797610  0.64422146     1.59700
Cd778      Cd  0.75868591  0.21603153  0.59548655     1.59600
O779        O  0.66883364  0.22244600  0.63248988    -0.80600
O780        O  0.75149826  0.26510228  0.62079098    -1.91100
Cd781      Cd  0.79732317  0.26195264  0.64966079     1.59900
O782        O  0.70909450  0.18620020  0.60007288    -0.80600
O783        O  0.82788857  0.30963809  0.64517203    -0.79200
C784        C  0.75841968  0.26465259  0.53798287     0.83300
C785        C  0.66863444  0.35187966  0.62082832     0.82900
O786        O  0.79732474  0.34132676  0.60647937    -0.78200
C787        C  0.74376346  0.26165511  0.70490087     0.83800
O788        O  0.75352370  0.29729418  0.55247812    -0.78300
C789        C  0.67654465  0.19265226  0.61518356     0.83900
C790        C  0.83892230  0.18011454  0.62736141     0.84200
O791        O  0.81129871  0.17767394  0.60805231    -0.80700
C792        C  0.53571959  0.48436842  0.63434753     0.30300
C793        C  0.97296034  0.04652943  0.63742948     0.30300
C794        C  0.99405375  0.47578167  0.62304071    -0.05900
C795        C  0.52448732  0.49974559  0.66570947    -0.06700
C796        C  0.54165859  0.02225555  0.61757665    -0.06600
C797        C  0.96219589  0.50786167  0.62472468    -0.05900
C798        C  0.99242288  0.03210578  0.66750838    -0.06700
C799        C  0.50953989  0.05395582  0.61942309    -0.06600
C800        C  0.92659222  0.49239252  0.62713369    -0.32000
N801        N  0.93501892  0.45227991  0.62585544     0.14500
C802        C  0.97592730  0.44185133  0.62512047    -0.32000
H803        H  0.99155124  0.41167922  0.62801415     0.16500
C804        C  0.97787512  0.03177670  0.69600835    -0.30900
N805        N  0.50128375  0.50259568  0.71178020     0.13300
C806        C  0.52803098  0.48154066  0.69302885    -0.30900
C807        C  0.52589153  0.08857967  0.61675094    -0.31200
N808        N  0.56622273  0.07924801  0.61225537     0.13800
H809        H  0.51033619  0.11837021  0.62129065     0.16400
C810        C  0.57633105  0.03913123  0.61296491    -0.31200
H811        H  0.60726568  0.02365443  0.61342244     0.16400
H812        H  0.54698147  0.45354192  0.69829932     0.16400
H813        H  0.89703665  0.50913118  0.63215427     0.16500
H814        H  0.95079935  0.04976422  0.70449666     0.16400
O815        O  0.52042664  0.07859837  0.93606220    -0.78200
C816        C  0.89399670  0.08319755  0.91798029     0.82800
O817        O  0.48865982  0.46839820  0.99193834    -0.79300
O818        O  0.90228301  0.45396761  0.90472014    -0.80800
O819        O  0.51609822  0.99754911  0.85277531    -0.80600
O820        O  0.56249542  0.04204434  0.90543850    -0.79200
Zn821      Zn  0.47542633  0.04775060  0.94529969     1.55700
O822        O  0.94973082  0.99669452  0.85087456    -0.80600
Cd823      Cd  0.53064457  0.99587442  0.89690419     1.59700
Cd824      Cd  0.48566520  0.45183814  0.94805414     1.59600
O825        O  0.56824682  0.44249737  0.90369239    -0.80600
O826        O  0.48085516  0.99965736  0.92164050    -1.91100
Cd827      Cd  0.93269511  0.00098698  0.89498667     1.59900
O828        O  0.53792844  0.41233601  0.93903665    -0.80600
O829        O  0.89338839  0.05418381  0.90026934    -0.79200
C830        C  0.48629959  0.00258116  0.00395736     0.83300
C831        C  0.55307382  0.07306993  0.92124359     0.82900
O832        O  0.92248696  0.08390317  0.93673574    -0.78200
C833        C  0.48363210  0.99655915  0.83802711     0.83800
O834        O  0.48036705  0.03469862  0.98890990    -0.78300
C835        C  0.56666680  0.41312753  0.92079705     0.83900
C836        C  0.90764976  0.42526911  0.92314347     0.84200
O837        O  0.93730147  0.42111464  0.94142110    -0.80700
C838        C  0.76182770  0.21764681  0.90824556     0.30300
C839        C  0.69882880  0.28013149  0.90823066     0.30300
C840        C  0.77046846  0.25583754  0.92346806    -0.05900
C841        C  0.74532345  0.23227520  0.87754243    -0.06700
C842        C  0.72246160  0.20992899  0.92320268    -0.06600
C843        C  0.73851204  0.28784681  0.92299412    -0.05900
C844        C  0.71441602  0.26529780  0.87751832    -0.06700
C845        C  0.69040622  0.24206633  0.92361277    -0.06600
C846        C  0.75595393  0.32199281  0.92461572    -0.32000
N847        N  0.79654638  0.31192366  0.92816298     0.14500
C848        C  0.80588440  0.27174401  0.92690575    -0.32000
H849        H  0.83648496  0.25565808  0.92539400     0.16500
C850        C  0.70772356  0.27677985  0.84844547    -0.30900
N851        N  0.73090742  0.24993312  0.83102942     0.13300
C852        C  0.75341452  0.22232373  0.84842562    -0.30900
C853        C  0.65488038  0.22602642  0.92509028    -0.31200
N854        N  0.66409391  0.18590290  0.92484772     0.13800
H855        H  0.62434278  0.24225355  0.92315806     0.16400
C856        C  0.70477264  0.17586009  0.92317500    -0.31200
H857        H  0.72020412  0.14584696  0.91937884     0.16400
H858        H  0.77478452  0.19747213  0.84031657     0.16400
H859        H  0.74061633  0.35208529  0.92072461     0.16500
H860        H  0.68805486  0.30304389  0.84044446     0.16400
O861        O  0.55722280  0.42233338  0.10320713    -0.78200
C862        C  0.92913307  0.43406470  0.12195187     0.82800
O863        O  0.98746258  0.03911163  0.04844386    -0.79300
O864        O  0.91570153  0.06289448  0.14025810    -0.80800
O865        O  0.53855325  0.01111688  0.18839530    -0.80600
O866        O  0.58946035  0.45319259  0.13740198    -0.79200
Zn867      Zn  0.00480081  0.45951242  0.09481651     1.55700
O868        O  0.97250677  0.00908923  0.18970351    -0.80600
Cd869      Cd  0.55147015  0.00689416  0.14334765     1.59700
Cd870      Cd  0.99402102  0.05576168  0.09211795     1.59600
O871        O  0.58133667  0.05373611  0.13144509    -0.80600
O872        O  0.00154868  0.00767919  0.11852183    -1.91100
Cd873      Cd  0.95470527  0.01044844  0.14595458     1.59900
O874        O  0.54381809  0.08588565  0.09530107    -0.80600
O875        O  0.92282913  0.46395377  0.13908534    -0.79200
C876        C  0.99106136  0.00495497  0.03619722     0.83300
C877        C  0.58693645  0.42334133  0.12087177     0.82900
O878        O  0.95936128  0.42924670  0.10455853    -0.78200
C879        C  0.00598206  0.01049201  0.20293798     0.83800
O880        O  0.99892430  0.47271634  0.05118554    -0.78300
C881        C  0.57494070  0.08159107  0.11226555     0.83900
C882        C  0.91506804  0.09311026  0.12363590     0.84200
O883        O  0.94225154  0.09486936  0.10417244    -0.80700
C884        C  0.71977283  0.28985498  0.13156699     0.30300
C885        C  0.78266229  0.22747868  0.13378182     0.30300
C886        C  0.75935782  0.29670579  0.11601699    -0.05900
C887        C  0.73637286  0.27792110  0.16272623    -0.06700
C888        C  0.71131454  0.25036494  0.11837218    -0.06600
C889        C  0.79148571  0.26457138  0.11733523    -0.05900
C890        C  0.76841029  0.24590068  0.16413991    -0.06700
C891        C  0.74325964  0.21887292  0.11963633    -0.06600
C892        C  0.82718977  0.28031599  0.11695658    -0.32000
N893        N  0.81852066  0.32033330  0.11462908     0.14500
C894        C  0.77765800  0.33058632  0.11546801    -0.32000
H895        H  0.76237866  0.36077495  0.11874620     0.16500
C896        C  0.78140983  0.24352500  0.19333952    -0.30900
N897        N  0.75787724  0.27197570  0.20936501     0.13300
C898        C  0.73088856  0.29357029  0.19076112    -0.30900
C899        C  0.72730156  0.18434657  0.11507293    -0.31200
N900        N  0.68679898  0.19402596  0.11030418     0.13800
H901        H  0.74322808  0.15425719  0.11791931     0.16000
C902        C  0.67657878  0.23416994  0.11247184    -0.31200
H903        H  0.64571874  0.24985010  0.11267641     0.16400
H904        H  0.70901819  0.31905051  0.19722983     0.16400
H905        H  0.85709300  0.26407998  0.12191238     0.16500
H906        H  0.80643218  0.22332359  0.20267148     0.16400
C907        C  0.97574574  0.05151066  0.40672697     0.30300
C908        C  0.54013263  0.49075233  0.40815731     0.30300
C909        C  0.96755347  0.01224465  0.41997559    -0.05900
C910        C  0.99340626  0.03740011  0.37619185    -0.06700
C911        C  0.51350568  0.06042536  0.42352140    -0.06600
C912        C  0.00035842  0.48176285  0.42156130    -0.05900
C913        C  0.52716911  0.00720256  0.37705553    -0.06700
C914        C  0.54691716  0.02942296  0.42375764    -0.06600
C915        C  0.98492134  0.44715820  0.42713907    -0.32000
N916        N  0.94382636  0.45580390  0.42845754     0.14500
C917        C  0.93292424  0.49528879  0.42323847    -0.32000
H918        H  0.90208640  0.00986373  0.41945101     0.16500
C919        C  0.53940417  0.49935502  0.34851038    -0.30900
N920        N  0.01258247  0.02175535  0.33001819     0.13300
C921        C  0.98403598  0.04434085  0.34667538    -0.30900
C922        C  0.58116318  0.04784165  0.42352740    -0.31200
N923        N  0.57007610  0.08765084  0.42533395     0.13800
H924        H  0.61190693  0.03350137  0.41930833     0.16400
C925        C  0.52911457  0.09583879  0.42440973    -0.31200
H926        H  0.51209644  0.12527532  0.42108793     0.16400
H927        H  0.95767474  0.06315017  0.33760800     0.16400
H928        H  0.00194618  0.41732413  0.42755132     0.16500
H929        H  0.56471651  0.47763567  0.34135078     0.16400
O930        O  0.71416366  0.19206095  0.43939121    -0.78200
C931        C  0.84251478  0.18539991  0.41648652     0.82800
O932        O  0.75445234  0.30014219  0.49266062    -0.79300
O933        O  0.83677197  0.31414688  0.40539434    -0.80800
O934        O  0.72296420  0.27243931  0.35128316    -0.80600
O935        O  0.67757538  0.22604971  0.40364644    -0.79200
Zn936      Zn  0.76262232  0.22068108  0.44641323     1.55700
O937        O  0.78914033  0.27336122  0.35078696    -0.80600
Cd938      Cd  0.70872695  0.27276614  0.39589819     1.59700
Cd939      Cd  0.75384870  0.31669198  0.44842110     1.59600
O940        O  0.67048784  0.32525333  0.40401664    -0.80600
O941        O  0.75747242  0.26894028  0.42214435    -1.91100
Cd942      Cd  0.80466338  0.26882760  0.39535475     1.59900
O943        O  0.70085656  0.35554808  0.43922206    -0.80600
O944        O  0.84279722  0.21618948  0.40068113    -0.79200
C945        C  0.75915225  0.26619724  0.50534679     0.83300
C946        C  0.68375528  0.19712386  0.42180414     0.82900
O947        O  0.81415570  0.18318999  0.43498912    -0.78200
C948        C  0.75558206  0.27359536  0.33709279     0.83800
O949        O  0.76368828  0.23381308  0.49054613    -0.78300
C950        C  0.67147526  0.35474760  0.42123526     0.83900
C951        C  0.83218097  0.34259037  0.42387999     0.84200
O952        O  0.80226934  0.34738853  0.44165386    -0.80700
C953        C  0.63267124  0.16473595  0.44817172    -0.08900
C954        C  0.65465562  0.16877860  0.42236013     0.07300
C955        C  0.64784200  0.14630974  0.39722083    -0.02700
C956        C  0.61959659  0.11990464  0.39830196    -0.07100
C957        C  0.59736307  0.11621651  0.42403966     0.06400
C958        C  0.60384985  0.13894575  0.44898692    -0.02100
Br959      Br  0.57482117  0.13424069  0.48481905    -0.01800
H960        H  0.63761518  0.18193659  0.46756453     0.10300
H961        H  0.61498760  0.10208859  0.37915560     0.08400
Br962      Br  0.67789555  0.14934130  0.36152732    -0.02300
C963        C  0.60327842  0.45450129  0.43386797    -0.08900
C964        C  0.57454182  0.45515985  0.41081009     0.07300
C965        C  0.57579415  0.42001960  0.39370185    -0.02700
C966        C  0.60762188  0.38838139  0.39756380    -0.07100
C967        C  0.63778068  0.38909172  0.41929496     0.06400
C968        C  0.63449105  0.42245602  0.43823681    -0.02100
Br969      Br  0.66954483  0.42645052  0.47162423    -0.01800
H970        H  0.60087329  0.47842170  0.44980188     0.10300
H971        H  0.60817890  0.36243792  0.38350989     0.08400
Br972      Br  0.53393350  0.41029520  0.36645796    -0.02300
C973        C  0.88509966  0.12484550  0.43689523    -0.08900
C974        C  0.87630270  0.15162266  0.41337526     0.07300
C975        C  0.90162290  0.14666685  0.38824762    -0.02700
C976        C  0.93309312  0.11440007  0.38663448    -0.07100
C977        C  0.94034110  0.08591152  0.40923326     0.06400
C978        C  0.91770707  0.09354444  0.43567110    -0.02100
Br979      Br  0.93183246  0.06621993  0.47239632    -0.01800
H980        H  0.86778082  0.12944352  0.45707866     0.10300
H981        H  0.95334979  0.11336428  0.36818593     0.08400
Br982      Br  0.89641092  0.18249166  0.35506063    -0.02300
C983        C  0.92314514  0.39534308  0.40814450    -0.08900
C984        C  0.91655627  0.42702185  0.42814891     0.07300
C985        C  0.88263134  0.43063083  0.44679331    -0.02700
C986        C  0.85593543  0.40279921  0.44509626    -0.07100
C987        C  0.86205795  0.37098789  0.42481850     0.06400
C988        C  0.89645888  0.36759984  0.40609242    -0.02100
Br989      Br  0.90971893  0.32692593  0.37666265    -0.01800
H990        H  0.94893850  0.39271945  0.39348036     0.10300
H991        H  0.83018291  0.40625736  0.45982826     0.08400
Br992      Br  0.87236387  0.47200698  0.47579743    -0.02300
C993        C  0.72059985  0.27657899  0.25606672    -0.08900
C994        C  0.75752585  0.27497056  0.24115430     0.07300
C995        C  0.79335485  0.27468166  0.25786019    -0.02700
C996        C  0.79187140  0.27445359  0.28879626    -0.07100
C997        C  0.75496075  0.27494994  0.30399511     0.06400
C998        C  0.71881116  0.27668851  0.28694761    -0.02100
Br999      Br  0.66546597  0.27936325  0.30344985    -0.01800
H1000       H  0.69284330  0.27693871  0.24345259     0.10300
H1001       H  0.81999418  0.27397985  0.30097399     0.08400
Br1002     Br  0.84466056  0.27719950  0.23963690    -0.02300
C1003       C  0.04271060  0.02012641  0.25013551    -0.08900
C1004       C  0.00710039  0.01213410  0.23593527     0.07300
C1005       C  0.47340045  0.50708479  0.25398239    -0.02700
C1006       C  0.47602334  0.51043373  0.28469750    -0.07100
C1007       C  0.01142274  0.01846816  0.29836528     0.06400
C1008       C  0.04496433  0.02348954  0.28090423    -0.02100
Br1009     Br  0.09331458  0.03805745  0.29792921    -0.01800
H1010       H  0.06884632  0.02467981  0.23726661     0.10300
H1011       H  0.45013618  0.50648365  0.29806371     0.08400
Br1012     Br  0.42253727  0.49531616  0.23892335    -0.02300
C1013       C  0.62063532  0.12239820  0.13720399    -0.08900
C1014       C  0.60395810  0.11048846  0.11074022     0.07300
C1015       C  0.61571251  0.12626907  0.08384776    -0.02700
C1016       C  0.64252741  0.15425359  0.08398931    -0.07100
C1017       C  0.65863492  0.16618169  0.11053851     0.06400
C1018       C  0.64787546  0.14973421  0.13721669    -0.02100
Br1019     Br  0.67003344  0.16382565  0.17413492    -0.01800
H1020       H  0.61230217  0.11052039  0.15806563     0.10300
H1021       H  0.65162242  0.16610104  0.06333884     0.08400
Br1022     Br  0.59946895  0.10790604  0.04634185    -0.02300
C1023       C  0.61716850  0.35913074  0.14369986    -0.08900
C1024       C  0.61931232  0.38872910  0.12255429     0.07300
C1025       C  0.65207424  0.38461418  0.10309670    -0.02700
C1026       C  0.68319258  0.35216835  0.10586786    -0.07100
C1027       C  0.68352102  0.32375863  0.12869964     0.06400
C1028       C  0.64825322  0.32631950  0.14651071    -0.02100
Br1029     Br  0.63838652  0.28553887  0.17372122    -0.01800
H1030       H  0.59089175  0.36135852  0.15790575     0.10300
H1031       H  0.70678260  0.34917426  0.08944695     0.08400
Br1032     Br  0.65556354  0.42273418  0.07237155    -0.02300
C1033       C  0.86716513  0.14883177  0.10173323    -0.08900
C1034       C  0.88145521  0.12684185  0.12681214     0.07300
C1035       C  0.86212408  0.13657603  0.15405373    -0.02700
C1036       C  0.82956812  0.16783651  0.15567145    -0.07100
C1037       C  0.81684565  0.19186257  0.13112979     0.06400
C1038       C  0.83489482  0.18041347  0.10343084    -0.02100
Br1039     Br  0.81621014  0.20456689  0.06636882    -0.01800
H1040       H  0.88057790  0.14080576  0.08043426     0.10300
H1041       H  0.81344022  0.17178410  0.17609535     0.08400
Br1042     Br  0.87948634  0.11000628  0.19045902    -0.02300
C1043       C  0.90861246  0.37179974  0.10210323    -0.08900
C1044       C  0.90082420  0.40427195  0.12168992     0.07300
C1045       C  0.86597762  0.40735339  0.13985783    -0.02700
C1046       C  0.83968745  0.37931663  0.13727605    -0.07100
C1047       C  0.84722956  0.34758539  0.11729859     0.06400
C1048       C  0.88244224  0.34361656  0.09988766    -0.02100
Br1049     Br  0.89533607  0.30170496  0.07151038    -0.01800
H1050       H  0.93504807  0.36834651  0.08801945     0.10300
H1051       H  0.81315877  0.38209629  0.15123494     0.08400
Br1052     Br  0.85156771  0.44818444  0.16899800    -0.02300
C1053       C  0.60943165  0.10359287  0.89969896    -0.08900
C1054       C  0.58072851  0.10325674  0.92229252     0.07300
C1055       C  0.57945603  0.13169619  0.94528147    -0.02700
C1056       C  0.60653581  0.15913603  0.94525021    -0.07100
C1057       C  0.63542811  0.15874901  0.92302513     0.06400
C1058       C  0.63651778  0.13103957  0.89984926    -0.02100
Br1059     Br  0.67283998  0.13078792  0.86710628    -0.01800
H1060       H  0.61065554  0.08264515  0.88159957     0.10300
H1061       H  0.60587168  0.18035712  0.96313353     0.08400
Br1062     Br  0.54346517  0.13403828  0.97838436    -0.02300
C1063       C  0.86318312  0.14664699  0.89466700    -0.08900
C1064       C  0.86127274  0.11749383  0.91615886     0.07300
C1065       C  0.82929467  0.12257311  0.93632904    -0.02700
C1066       C  0.79846668  0.15529258  0.93364944    -0.07100
C1067       C  0.79776927  0.18324587  0.91043147     0.06400
C1068       C  0.83277656  0.18005493  0.89225604    -0.02100
Br1069     Br  0.84468733  0.22114404  0.86604695    -0.01800
H1070       H  0.88923708  0.14397610  0.88021609     0.10300
H1071       H  0.77535448  0.15892740  0.95045546     0.08400
Br1072     Br  0.82642011  0.08560325  0.96794313    -0.02300
C1073       C  0.59795333  0.35211023  0.89521294    -0.08900
C1074       C  0.59877865  0.37855909  0.91871080     0.07300
C1075       C  0.62960396  0.37105038  0.93999054    -0.02700
C1076       C  0.66125626  0.33939858  0.93599140    -0.07100
C1077       C  0.66299675  0.31435172  0.91092494     0.06400
C1078       C  0.62835745  0.31899721  0.89202553    -0.02100
Br1079     Br  0.61607335  0.27950952  0.86449892    -0.01800
H1080       H  0.57247704  0.35635058  0.87995351     0.10300
H1081       H  0.68418405  0.33407748  0.95312085     0.08400
Br1082     Br  0.62937335  0.40294235  0.97495791    -0.02300
C1083       C  0.82338638  0.36554190  0.90273149    -0.08900
C1084       C  0.82503547  0.33935046  0.92666930     0.07300
C1085       C  0.85393332  0.34100545  0.94907780    -0.02700
C1086       C  0.88042933  0.36903089  0.94746221    -0.07100
C1087       C  0.87886693  0.39582771  0.92354862     0.06400
C1088       C  0.84997217  0.39336751  0.90074694    -0.02100
Br1089     Br  0.84518000  0.42541684  0.86556298    -0.01800
H1090       H  0.80138790  0.36393080  0.88526414     0.10300
H1091       H  0.90201943  0.37007152  0.96528013     0.08400
Br1092     Br  0.85653413  0.30701631  0.98302110    -0.02300
C1093       C  0.95807611  0.50052602  0.75542081    -0.08900
C1094       C  0.49705655  0.49578644  0.74297922     0.07300
C1095       C  0.53082506  0.98886638  0.76204857    -0.02700
C1096       C  0.52537533  0.98837853  0.79253893    -0.07100
C1097       C  0.48645081  0.99494201  0.80520553     0.06400
C1098       C  0.95250566  0.50012773  0.78603830    -0.02100
Br1099     Br  0.89726602  0.50882346  0.79948106    -0.01800
H1100       H  0.93160364  0.50544547  0.74114519     0.10300
H1101       H  0.55222937  0.98363529  0.80645987     0.08400
Br1102     Br  0.58589533  0.98312824  0.74866833    -0.02300
C1103       C  0.76755315  0.26685384  0.78737561    -0.08900
C1104       C  0.73419826  0.25258087  0.79958574     0.07300
C1105       C  0.70459411  0.24089321  0.78084019    -0.02700
C1106       C  0.70786233  0.24480331  0.75023675    -0.07100
C1107       C  0.74122413  0.25926238  0.73764378     0.06400
C1108       C  0.77156887  0.27007740  0.75675813    -0.02100
Br1109     Br  0.81883616  0.29042348  0.74316659    -0.01800
H1110       H  0.79054632  0.27558517  0.80187440     0.10300
H1111       H  0.68468614  0.23544447  0.73622603     0.08400
Br1112     Br  0.66081884  0.21702248  0.79628178    -0.02300
C1113       C  0.88506703  0.12275167  0.60614335    -0.08900
C1114       C  0.87325838  0.14678302  0.63065121     0.07300
C1115       C  0.89519341  0.13884791  0.65738161    -0.02700
C1116       C  0.92770566  0.10739009  0.65901739    -0.07100
C1117       C  0.93820612  0.08176568  0.63503222     0.06400
C1118       C  0.91726441  0.09107736  0.60786454    -0.02100
Br1119     Br  0.93148271  0.06326321  0.57146605    -0.01800
H1120       H  0.86955488  0.12903837  0.58520249     0.10300
H1121       H  0.94540179  0.10421152  0.67906601     0.08400
Br1122     Br  0.88168802  0.16815822  0.69318434    -0.02300
C1123       C  0.64107292  0.41775845  0.64187624    -0.08900
C1124       C  0.63696396  0.38708886  0.62206828     0.07300
C1125       C  0.60135075  0.38905275  0.60530357    -0.02700
C1126       C  0.56974745  0.42081884  0.60918201    -0.07100
C1127       C  0.57185726  0.45051592  0.63073648     0.06400
C1128       C  0.60937359  0.44958795  0.64609442    -0.02100
Br1129     Br  0.62109398  0.49073525  0.67237811    -0.01800
H1130       H  0.66900965  0.41668231  0.65441502     0.10300
H1131       H  0.54368169  0.42217675  0.59474474     0.08400
Br1132     Br  0.59469971  0.34864836  0.57692921    -0.02300
C1133       C  0.84539601  0.40140184  0.60955718    -0.08900
C1134       C  0.85273480  0.36795342  0.62827424     0.07300
C1135       C  0.88684711  0.36425673  0.64759581    -0.02700
C1136       C  0.91298017  0.39268797  0.64685686    -0.07100
C1137       C  0.90594767  0.42530084  0.62758437     0.06400
C1138       C  0.87139074  0.42984199  0.60911446    -0.02100
Br1139     Br  0.85957962  0.47258797  0.58115470    -0.01800
H1140       H  0.81949222  0.40538499  0.59471238     0.10300
H1141       H  0.93921772  0.38927032  0.66138181     0.08400
Br1142     Br  0.90103959  0.32134490  0.67527474    -0.02300
C1143       C  0.61184499  0.11758582  0.58690050    -0.08900
C1144       C  0.59423033  0.10714754  0.61310878     0.07300
C1145       C  0.60291972  0.12546197  0.63970375    -0.02700
C1146       C  0.62927727  0.15365402  0.63979873    -0.07100
C1147       C  0.64746803  0.16396703  0.61361216     0.06400
C1148       C  0.63805939  0.14599445  0.58686792    -0.02100
Br1149     Br  0.65729722  0.16126119  0.54941301    -0.01800
H1150       H  0.60440087  0.10414056  0.56633937     0.10300
H1151       H  0.63614138  0.16705894  0.66053054     0.08400
Br1152     Br  0.58013228  0.11204964  0.67640635    -0.02300
O1153       O  0.69910941  0.85200869  0.60413289    -0.78200
C1154       C  0.82456174  0.83801991  0.62682450     0.82800
O1155       O  0.76192091  0.73100019  0.55107599    -0.79300
O1156       O  0.83804343  0.71061255  0.64384513    -0.80800
O1157       O  0.71144689  0.76358771  0.68958350    -0.80600
O1158       O  0.66457877  0.82236063  0.63730409    -0.79200
Zn1159     Zn  0.75037118  0.81245515  0.59629939     1.55700
O1160       O  0.77821330  0.76087915  0.69291725    -0.80600
Cd1161     Cd  0.70044127  0.76804284  0.64438255     1.59700
Cd1162     Cd  0.75867319  0.71610289  0.59562054     1.59600
O1163       O  0.66877255  0.72259457  0.63261464    -0.80600
O1164       O  0.75150230  0.76515515  0.62093006    -1.91100
Cd1165     Cd  0.79734565  0.76194090  0.64978168     1.59900
O1166       O  0.70905829  0.68631812  0.60022515    -0.80600
O1167       O  0.82785197  0.80966289  0.64537366    -0.79200
C1168       C  0.75836451  0.76474160  0.53811251     0.83300
C1169       C  0.66869604  0.85198188  0.62105732     0.82900
O1170       O  0.79731866  0.84136849  0.60667557    -0.78200
C1171       C  0.74382485  0.76152205  0.70501948     0.83800
O1172       O  0.75349660  0.79738272  0.55261174    -0.78300
C1173       C  0.67648931  0.69279795  0.61531297     0.83900
C1174       C  0.83893953  0.68013669  0.62745679     0.84200
O1175       O  0.81128943  0.67771580  0.60816406    -0.80700
C1176       C  0.53566534  0.98436182  0.63447305     0.30300
C1177       C  0.97299580  0.54653070  0.63740008     0.30300
C1178       C  0.99400674  0.97573006  0.62320525    -0.05900
C1179       C  0.52444282  0.99984379  0.66580741    -0.06700
C1180       C  0.54171164  0.52232703  0.61753279    -0.06600
C1181       C  0.96215417  0.00781824  0.62485004    -0.05900
C1182       C  0.99245957  0.53198634  0.66745978    -0.06700
C1183       C  0.50958780  0.55401401  0.61942764    -0.06600
C1184       C  0.92655498  0.99237208  0.62733059    -0.32000
N1185       N  0.93497952  0.95226193  0.62612378     0.14500
C1186       C  0.97588163  0.94181111  0.62537224    -0.32000
H1187       H  0.99149806  0.91164240  0.62830196     0.16500
C1188       C  0.97804136  0.53166988  0.69599828    -0.30900
N1189       N  0.50102453  0.00267516  0.71181726     0.13300
C1190       C  0.52781527  0.98160108  0.69310929    -0.30900
C1191       C  0.52591165  0.58865329  0.61677256    -0.31200
N1192       N  0.56623939  0.57934698  0.61225311     0.13800
H1193       H  0.51034458  0.61843175  0.62133702     0.16400
C1194       C  0.57637086  0.53922887  0.61293007    -0.31200
H1195       H  0.60731139  0.52376523  0.61336451     0.16400
H1196       H  0.54669112  0.95356695  0.69839381     0.16400
H1197       H  0.89699862  0.00913138  0.63232311     0.16500
H1198       H  0.95098498  0.54962183  0.70454011     0.16400
O1199       O  0.52043461  0.57859612  0.93605272    -0.78200
C1200       C  0.89405246  0.58305485  0.91811998     0.82800
O1201       O  0.48872110  0.96843968  0.99183489    -0.79300
O1202       O  0.90222206  0.95399530  0.90468522    -0.80800
O1203       O  0.51625124  0.49747069  0.85278416    -0.80600
O1204       O  0.56251677  0.54206835  0.90543005    -0.79200
Zn1205     Zn  0.47550555  0.54767697  0.94538423     1.55700
O1206       O  0.94989388  0.49660633  0.85084782    -0.80600
Cd1207     Cd  0.53067720  0.49588196  0.89694014     1.59700
Cd1208     Cd  0.48570067  0.95183456  0.94796775     1.59600
O1209       O  0.56827108  0.94246450  0.90359865    -0.80600
O1210       O  0.48089839  0.49962561  0.92169032    -1.91100
Cd1211     Cd  0.93280301  0.50092813  0.89498371     1.59900
O1212       O  0.53797570  0.91229765  0.93894268    -0.80600
O1213       O  0.89351993  0.55412655  0.90031575    -0.79200
C1214       C  0.48633434  0.50252981  0.00406161     0.83300
C1215       C  0.55306391  0.57311075  0.92121054     0.82900
O1216       O  0.92250200  0.58372109  0.93691326    -0.78200
C1217       C  0.48381346  0.49645119  0.83801175     0.83800
O1218       O  0.48051390  0.53464003  0.98900475    -0.78300
C1219       C  0.56671443  0.91308418  0.92070057     0.83900
C1220       C  0.90766519  0.92526104  0.92307479     0.84200
O1221       O  0.93734013  0.92111014  0.94133315    -0.80700
C1222       C  0.76196432  0.71754059  0.90835578     0.30300
C1223       C  0.69897990  0.78004629  0.90829961     0.30300
C1224       C  0.77061000  0.75572977  0.92357139    -0.05900
C1225       C  0.74549216  0.73215580  0.87764696    -0.06700
C1226       C  0.72258761  0.70984180  0.92329919    -0.06600
C1227       C  0.73865739  0.78775714  0.92307441    -0.05900
C1228       C  0.71459643  0.76518889  0.87760145    -0.06700
C1229       C  0.69054028  0.74199070  0.92369025    -0.06600
C1230       C  0.75613104  0.82189087  0.92458838    -0.32000
N1231       N  0.79672103  0.81180980  0.92810557     0.14500
C1232       C  0.80604140  0.77162963  0.92692011    -0.32000
H1233       H  0.83663414  0.75552817  0.92539597     0.16500
C1234       C  0.70792353  0.77664588  0.84852477    -0.30900
N1235       N  0.73112097  0.74978051  0.83113119     0.13300
C1236       C  0.75359091  0.72216815  0.84854034    -0.30900
C1237       C  0.65501209  0.72596112  0.92514997    -0.31200
N1238       N  0.66420846  0.68583730  0.92489458     0.13800
H1239       H  0.62448004  0.74219789  0.92321629     0.16400
C1240       C  0.70489230  0.67577716  0.92326228    -0.31200
H1241       H  0.72033233  0.64576087  0.91948943     0.16400
H1242       H  0.77492664  0.69728116  0.84044418     0.16400
H1243       H  0.74081264  0.85197636  0.92064041     0.16500
H1244       H  0.68824534  0.80289302  0.84050586     0.16400
O1245       O  0.55724633  0.92232283  0.10310243    -0.78200
C1246       C  0.92913158  0.93416113  0.12182659     0.82800
O1247       O  0.98743394  0.53905150  0.04856782    -0.79300
O1248       O  0.91557155  0.56267193  0.14050936    -0.80800
O1249       O  0.53854492  0.51101062  0.18853925    -0.80600
O1250       O  0.58944562  0.95312435  0.13735194    -0.79200
Zn1251     Zn  0.00484747  0.95955832  0.09469576     1.55700
O1252       O  0.97252143  0.50890258  0.18989481    -0.80600
Cd1253     Cd  0.55138339  0.50687535  0.14347565     1.59700
Cd1254     Cd  0.99380267  0.55568269  0.09227917     1.59600
O1255       O  0.58107389  0.55383729  0.13161995    -0.80600
O1256       O  0.00145596  0.50760244  0.11867320    -1.91100
Cd1257     Cd  0.95468030  0.51029257  0.14615820     1.59900
O1258       O  0.54337343  0.58607554  0.09561270    -0.80600
O1259       O  0.92280434  0.96410781  0.13890863    -0.79200
C1260       C  0.99105069  0.50489923  0.03631091     0.83300
C1261       C  0.58692503  0.92328415  0.12080883     0.82900
O1262       O  0.95937785  0.92930632  0.10444858    -0.78200
C1263       C  0.00600309  0.51034306  0.20310670     0.83800
O1264       O  0.99897052  0.97277289  0.05107031    -0.78300
C1265       C  0.57453010  0.58180820  0.11254061     0.83900
C1266       C  0.91479758  0.59283283  0.12381582     0.84200
O1267       O  0.94190662  0.59458914  0.10429734    -0.80700
C1268       C  0.71980132  0.78984519  0.13160920     0.30300
C1269       C  0.78260224  0.72740138  0.13386481     0.30300
C1270       C  0.75943519  0.79666813  0.11612086    -0.05900
C1271       C  0.73631203  0.77785001  0.16278109    -0.06700
C1272       C  0.71131746  0.75040384  0.11835095    -0.06600
C1273       C  0.79152903  0.76450705  0.11746754    -0.05900
C1274       C  0.76829378  0.74578619  0.16421296    -0.06700
C1275       C  0.74321562  0.71884971  0.11966319    -0.06600
C1276       C  0.82726037  0.78022422  0.11712223    -0.32000
N1277       N  0.81862889  0.82024777  0.11477438     0.14500
C1278       C  0.77776375  0.83053006  0.11557629    -0.32000
H1279       H  0.76249291  0.86073075  0.11881144     0.16500
C1280       C  0.78124387  0.74336111  0.19341914    -0.30900
N1281       N  0.75776327  0.77186434  0.20943567     0.13300
C1282       C  0.73083941  0.79351242  0.19081165    -0.30900
C1283       C  0.72708879  0.68433696  0.11546434    -0.31200
N1284       N  0.68657869  0.69408565  0.11078211     0.13800
H1285       H  0.74293391  0.65424521  0.11847013     0.16000
C1286       C  0.67649228  0.73425153  0.11268845    -0.31200
H1287       H  0.64566433  0.75000940  0.11288551     0.16400
H1288       H  0.70903695  0.81905655  0.19725732     0.16400
H1289       H  0.85715149  0.76396423  0.12208379     0.16500
H1290       H  0.80620927  0.72307919  0.20274976     0.16400
C1291       C  0.97578282  0.55155500  0.40686453     0.30300
C1292       C  0.54013178  0.99074685  0.40799858     0.30300
C1293       C  0.96756098  0.51230995  0.42012958    -0.05900
C1294       C  0.99344504  0.53741830  0.37633375    -0.06700
C1295       C  0.51355614  0.56045698  0.42364557    -0.06600
C1296       C  0.00036751  0.98172201  0.42139595    -0.05900
C1297       C  0.52718835  0.50720021  0.37721507    -0.06700
C1298       C  0.54695432  0.52943012  0.42389394    -0.06600
C1299       C  0.98497975  0.94711686  0.42706806    -0.32000
N1300       N  0.94388559  0.95574026  0.42845072     0.14500
C1301       C  0.93294171  0.99521011  0.42318266    -0.32000
H1302       H  0.90208832  0.50996514  0.41945980     0.16500
C1303       C  0.53934088  0.99936681  0.34833600    -0.30900
N1304       N  0.01268943  0.52175543  0.33017368     0.13300
C1305       C  0.98413132  0.54436514  0.34681035    -0.30900
C1306       C  0.58121557  0.54782427  0.42358025    -0.31200
N1307       N  0.57015685  0.58764093  0.42531084     0.13800
H1308       H  0.61194579  0.53345143  0.41935854     0.16400
C1309       C  0.52919742  0.59585374  0.42443888    -0.31200
H1310       H  0.51219159  0.62529002  0.42109051     0.16400
H1311       H  0.95779272  0.56318378  0.33772141     0.16400
H1312       H  0.00202997  0.91729367  0.42750662     0.16500
H1313       H  0.56465980  0.97767188  0.34115412     0.16400
O1314       O  0.71418770  0.69207710  0.43944746    -0.78200
C1315       C  0.84251701  0.68544720  0.41664879     0.82800
O1316       O  0.75437056  0.80021880  0.49277416    -0.79300
O1317       O  0.83672042  0.81415995  0.40552338    -0.80800
O1318       O  0.72290833  0.77252711  0.35134975    -0.80600
O1319       O  0.67763953  0.72600843  0.40365383    -0.79200
Zn1320     Zn  0.76260148  0.72073161  0.44653409     1.55700
O1321       O  0.78908069  0.77346441  0.35086991    -0.80600
Cd1322     Cd  0.70871662  0.77277313  0.39596552     1.59700
Cd1323     Cd  0.75378362  0.81674406  0.44851899     1.59600
O1324       O  0.67042848  0.82520977  0.40408610    -0.80600
O1325       O  0.75743639  0.76897845  0.42224393    -1.91100
Cd1326     Cd  0.80461240  0.76885887  0.39544931     1.59900
O1327       O  0.70078219  0.85557592  0.43926254    -0.80600
O1328       O  0.84274940  0.71621157  0.40080351    -0.79200
C1329       C  0.75907317  0.76627916  0.50547033     0.83300
C1330       C  0.68382305  0.69709593  0.42181970     0.82900
O1331       O  0.81417763  0.68324788  0.43516984    -0.78200
C1332       C  0.75552048  0.77373238  0.33716781     0.83800
O1333       O  0.76360639  0.73388998  0.49067381    -0.78300
C1334       C  0.67140533  0.85473301  0.42127579     0.83900
C1335       C  0.83215445  0.84259911  0.42401228     0.84200
O1336       O  0.80223033  0.84743088  0.44177632    -0.80700
C1337       C  0.63251643  0.66493516  0.44807839    -0.08900
C1338       C  0.65475592  0.66873354  0.42235573     0.07300
C1339       C  0.64820506  0.64603359  0.39728335    -0.02700
C1340       C  0.61995197  0.61963330  0.39834946    -0.07100
C1341       C  0.59746103  0.61618706  0.42400289     0.06400
C1342       C  0.60369839  0.63915012  0.44887665    -0.02100
Br1343     Br  0.57436371  0.63475114  0.48461220    -0.01800
H1344       H  0.63726658  0.68231758  0.46741637     0.10300
H1345       H  0.61553287  0.60164185  0.37925960     0.08400
Br1346     Br  0.67861755  0.64876872  0.36172187    -0.02300
C1347       C  0.60322163  0.95451373  0.43377201    -0.08900
C1348       C  0.57454889  0.95516826  0.41067114     0.07300
C1349       C  0.57581868  0.92000921  0.39358354    -0.02700
C1350       C  0.60761853  0.88835685  0.39750400    -0.07100
C1351       C  0.63771720  0.88907316  0.41928183     0.06400
C1352       C  0.63439180  0.92245225  0.43820657    -0.02100
Br1353     Br  0.66931061  0.92642842  0.47167370    -0.01800
H1354       H  0.60078183  0.97843961  0.44970171     0.10300
H1355       H  0.60819748  0.86239832  0.38346291     0.08400
Br1356     Br  0.53398805  0.91027116  0.36631948    -0.02300
C1357       C  0.88519487  0.62494138  0.43708676    -0.08900
C1358       C  0.87633268  0.65168337  0.41354891     0.07300
C1359       C  0.90160537  0.64669785  0.38839685    -0.02700
C1360       C  0.93307332  0.61442714  0.38676797    -0.07100
C1361       C  0.94038631  0.58597356  0.40938576     0.06400
C1362       C  0.91780867  0.59363919  0.43584686    -0.02100
Br1363     Br  0.93201116  0.56632304  0.47256573    -0.01800
H1364       H  0.86791679  0.62956066  0.45728653     0.10300
H1365       H  0.95328121  0.61336975  0.36829411     0.08400
Br1366     Br  0.89634343  0.68250092  0.35519681    -0.02300
C1367       C  0.92322013  0.89520105  0.40827280    -0.08900
C1368       C  0.91663397  0.92693868  0.42822500     0.07300
C1369       C  0.88270788  0.93060288  0.44687396    -0.02700
C1370       C  0.85598048  0.90279515  0.44520372    -0.07100
C1371       C  0.86208198  0.87094728  0.42495661     0.06400
C1372       C  0.89651634  0.86747266  0.40625735    -0.02100
Br1373     Br  0.90981868  0.82668371  0.37691761    -0.01800
H1374       H  0.94902223  0.89252208  0.39361394     0.10300
H1375       H  0.83021657  0.90630479  0.45992605     0.08400
Br1376     Br  0.87247500  0.97202660  0.47584411    -0.02300
C1377       C  0.72047179  0.77710596  0.25615041    -0.08900
C1378       C  0.75745171  0.77495683  0.24122504     0.07300
C1379       C  0.79334379  0.77430959  0.25792772    -0.02700
C1380       C  0.79186040  0.77414907  0.28886370    -0.07100
C1381       C  0.75489304  0.77513159  0.30407084     0.06400
C1382       C  0.71868397  0.77736490  0.28703271    -0.02100
Br1383     Br  0.66524701  0.78109215  0.30355693    -0.01800
H1384       H  0.69265377  0.77781428  0.24355080     0.10300
H1385       H  0.82003328  0.77334050  0.30103673     0.08400
Br1386     Br  0.84476927  0.77630413  0.23972131    -0.02300
C1387       C  0.04284926  0.51980574  0.25028758    -0.08900
C1388       C  0.00715878  0.51199081  0.23610358     0.07300
C1389       C  0.47338745  0.00703156  0.25379851    -0.02700
C1390       C  0.47598203  0.01034573  0.28452081    -0.07100
C1391       C  0.01153138  0.51840395  0.29852567     0.06400
C1392       C  0.04513539  0.52319640  0.28105352    -0.02100
Br1393     Br  0.09364228  0.53746538  0.29804743    -0.01800
H1394       H  0.06903033  0.52419179  0.23740809     0.10300
H1395       H  0.45013533  0.00624019  0.29787819     0.08400
Br1396     Br  0.42265182  0.99498959  0.23869899    -0.02300
C1397       C  0.62080865  0.62198750  0.13751839    -0.08900
C1398       C  0.60345357  0.61081920  0.11108162     0.07300
C1399       C  0.61445620  0.62745172  0.08428805    -0.02700
C1400       C  0.64139301  0.65530621  0.08451045    -0.07100
C1401       C  0.65829922  0.66636080  0.11101468     0.06400
C1402       C  0.64808172  0.64929418  0.13760121    -0.02100
Br1403     Br  0.67078069  0.66269706  0.17450847    -0.01800
H1404       H  0.61295113  0.60958461  0.15831665     0.10300
H1405       H  0.64994546  0.66776188  0.06392756     0.08400
Br1406     Br  0.59688987  0.61063444  0.04669293    -0.02300
C1407       C  0.61716918  0.85909653  0.14368822    -0.08900
C1408       C  0.61928924  0.88865363  0.12250525     0.07300
C1409       C  0.65204469  0.88450547  0.10303844    -0.02700
C1410       C  0.68322446  0.85212138  0.10587504    -0.07100
C1411       C  0.68356128  0.82375504  0.12873467     0.06400
C1412       C  0.64826857  0.82630174  0.14652470    -0.02100
Br1413     Br  0.63836522  0.78550735  0.17372162    -0.01800
H1414       H  0.59089019  0.86133181  0.15789239     0.10300
H1415       H  0.70684426  0.84911944  0.08947536     0.08400
Br1416     Br  0.65540462  0.92247320  0.07218571    -0.02300
C1417       C  0.86702913  0.64862508  0.10189476    -0.08900
C1418       C  0.88113583  0.62652576  0.12696731     0.07300
C1419       C  0.86165507  0.63620463  0.15416794    -0.02700
C1420       C  0.82920097  0.66757100  0.15575415    -0.07100
C1421       C  0.81671895  0.69173050  0.13123556     0.06400
C1422       C  0.83485574  0.68029648  0.10356392    -0.02100
Br1423     Br  0.81643397  0.70459403  0.06649437    -0.01800
H1424       H  0.88053365  0.64063956  0.08061703     0.10300
H1425       H  0.81295261  0.67151693  0.17613807     0.08400
Br1426     Br  0.87864477  0.60942948  0.19056717    -0.02300
C1427       C  0.90863626  0.87181173  0.10207080    -0.08900
C1428       C  0.90085309  0.90432272  0.12162660     0.07300
C1429       C  0.86606851  0.90736532  0.13985590    -0.02700
C1430       C  0.83982542  0.87926763  0.13735745    -0.07100
C1431       C  0.84735216  0.84750309  0.11740641     0.06400
C1432       C  0.88251875  0.84356022  0.09994399    -0.02100
Br1433     Br  0.89541270  0.80158900  0.07161514    -0.01800
H1434       H  0.93502952  0.86837731  0.08794549     0.10300
H1435       H  0.81333370  0.88203509  0.15135311     0.08400
Br1436     Br  0.85168719  0.94822587  0.16897608    -0.02300
C1437       C  0.60953742  0.60353927  0.89971551    -0.08900
C1438       C  0.58068497  0.60333979  0.92222673     0.07300
C1439       C  0.57926056  0.63193545  0.94511921    -0.02700
C1440       C  0.60642970  0.65928627  0.94513851    -0.07100
C1441       C  0.63550682  0.65872196  0.92302823     0.06400
C1442       C  0.63666136  0.63095477  0.89988649    -0.02100
Br1443     Br  0.67307525  0.63063531  0.86719089    -0.01800
H1444       H  0.61084695  0.58251344  0.88166178     0.10300
H1445       H  0.60565988  0.68060605  0.96296445     0.08400
Br1446     Br  0.54285464  0.63470910  0.97799531    -0.02300
C1447       C  0.86318673  0.64638353  0.89472672    -0.08900
C1448       C  0.86133894  0.61735124  0.91631505     0.07300
C1449       C  0.82948612  0.62259384  0.93659268    -0.02700
C1450       C  0.79864370  0.65530069  0.93386902    -0.07100
C1451       C  0.79788957  0.68313190  0.91056310     0.06400
C1452       C  0.83284295  0.67983285  0.89232558    -0.02100
Br1453     Br  0.84484530  0.72084783  0.86608517    -0.01800
H1454       H  0.88918101  0.64361285  0.88021322     0.10300
H1455       H  0.77556245  0.65903381  0.95070005     0.08400
Br1456     Br  0.82681740  0.58588778  0.96841339    -0.02300
C1457       C  0.59800869  0.85192353  0.89523749    -0.08900
C1458       C  0.59887240  0.87852189  0.91863962     0.07300
C1459       C  0.62979392  0.87117228  0.93986157    -0.02700
C1460       C  0.66145007  0.83950311  0.93591572    -0.07100
C1461       C  0.66313714  0.81428834  0.91094540     0.06400
C1462       C  0.62845485  0.81882521  0.89208547    -0.02100
Br1463     Br  0.61624386  0.77925412  0.86460078    -0.01800
H1464       H  0.57249160  0.85605549  0.88001390     0.10300
H1465       H  0.68441731  0.83430237  0.95302305     0.08400
Br1466     Br  0.62969380  0.90330792  0.97469261    -0.02300
C1467       C  0.82364041  0.86529801  0.90257596    -0.08900
C1468       C  0.82521310  0.83921979  0.92657693     0.07300
C1469       C  0.85399294  0.84100959  0.94904301    -0.02700
C1470       C  0.88044372  0.86907051  0.94743077    -0.07100
C1471       C  0.87894663  0.89576915  0.92346359     0.06400
C1472       C  0.85018734  0.89315960  0.90059445    -0.02100
Br1473     Br  0.84555888  0.92503566  0.86532598    -0.01800
H1474       H  0.80172695  0.86357796  0.88506772     0.10300
H1475       H  0.90193623  0.87022690  0.96529665     0.08400
Br1476     Br  0.85646756  0.80716814  0.98306090    -0.02300
C1477       C  0.95779035  0.00081041  0.75546828    -0.08900
C1478       C  0.49677042  0.99591336  0.74301480     0.07300
C1479       C  0.53110269  0.48883814  0.76202689    -0.02700
C1480       C  0.52563135  0.48836965  0.79252479    -0.07100
C1481       C  0.48668853  0.49479772  0.80518030     0.06400
C1482       C  0.95224346  0.00044523  0.78608815    -0.02100
Br1483     Br  0.89702139  0.00948042  0.79957296    -0.01800
H1484       H  0.93130981  0.00584269  0.74120504     0.10300
H1485       H  0.55247501  0.48373153  0.80645834     0.08400
Br1486     Br  0.58616674  0.48314239  0.74863662    -0.02300
C1487       C  0.76775068  0.76665216  0.78746008    -0.08900
C1488       C  0.73441137  0.75237581  0.79968983     0.07300
C1489       C  0.70480726  0.74064536  0.78097066    -0.02700
C1490       C  0.70802794  0.74456087  0.75036649    -0.07100
C1491       C  0.74135132  0.75906214  0.73775452     0.06400
C1492       C  0.77172566  0.76987515  0.75684180    -0.02100
Br1493     Br  0.81896974  0.79023230  0.74321016    -0.01800
H1494       H  0.79075348  0.77539849  0.80194290     0.10300
H1495       H  0.68484324  0.73518764  0.73637131     0.08400
Br1496     Br  0.66109531  0.71672766  0.79646397    -0.02300
C1497       C  0.88520213  0.62292230  0.60615509    -0.08900
C1498       C  0.87327025  0.64679645  0.63071828     0.07300
C1499       C  0.89509443  0.63871777  0.65747795    -0.02700
C1500       C  0.92762771  0.60727538  0.65908708    -0.07100
C1501       C  0.93824450  0.58178749  0.63504143     0.06400
C1502       C  0.91741476  0.59125617  0.60784991    -0.02100
Br1503     Br  0.93184962  0.56370044  0.57138498    -0.01800
H1504       H  0.86978007  0.62933560  0.58519325     0.10300
H1505       H  0.94524790  0.60401762  0.67916447     0.08400
Br1506     Br  0.88138110  0.66780116  0.69334745    -0.02300
C1507       C  0.64105995  0.91786562  0.64208205    -0.08900
C1508       C  0.63699998  0.88716657  0.62228817     0.07300
C1509       C  0.60138711  0.88905020  0.60553407    -0.02700
C1510       C  0.56973402  0.92076840  0.60940279    -0.07100
C1511       C  0.57181181  0.95051406  0.63092202     0.06400
C1512       C  0.60931881  0.94966149  0.64627921    -0.02100
Br1513     Br  0.62096685  0.99088371  0.67252323    -0.01800
H1514       H  0.66899142  0.91684461  0.65461896     0.10300
H1515       H  0.54366030  0.92205922  0.59497984     0.08400
Br1516     Br  0.59481799  0.84859713  0.57717878    -0.02300
C1517       C  0.84544500  0.90136336  0.60971845    -0.08900
C1518       C  0.85266145  0.86801611  0.62853820     0.07300
C1519       C  0.88663692  0.86442445  0.64798575    -0.02700
C1520       C  0.91278800  0.89283537  0.64724794    -0.07100
C1521       C  0.90588984  0.92532124  0.62785973     0.06400
C1522       C  0.87145389  0.92978147  0.60927948    -0.02100
Br1523     Br  0.85986910  0.97236663  0.58116716    -0.01800
H1524       H  0.81964434  0.90527113  0.59477926     0.10300
H1525       H  0.93893605  0.88950094  0.66185692     0.08400
Br1526     Br  0.90061068  0.82170259  0.67585056    -0.02300
C1527       C  0.61174708  0.61784491  0.58693166    -0.08900
C1528       C  0.59422217  0.60726788  0.61313648     0.07300
C1529       C  0.60296978  0.62546766  0.63976505    -0.02700
C1530       C  0.62928321  0.65370126  0.63989510    -0.07100
C1531       C  0.64739988  0.66413493  0.61371262     0.06400
C1532       C  0.63794737  0.64626517  0.58693901    -0.02100
Br1533     Br  0.65715115  0.66166193  0.54950841    -0.01800
H1534       H  0.60426356  0.60448165  0.56634780     0.10300
H1535       H  0.63619469  0.66702134  0.66064929     0.08400
Br1536     Br  0.58035187  0.61180112  0.67646431    -0.02300
loop_ 
_geom_bond_atom_site_label_1 
_geom_bond_atom_site_label_2 
_geom_bond_distance 
_geom_bond_site_symmetry_2 
_ccdc_geom_bond_type 
O1           C17   1.276       .  A
O1           Zn7   2.034       .  S
C2           O18   1.276       .  A
C2           O15   1.270       .  A
C2          C366   1.492       .  S
O3           C16   1.277       .  A
O3          Cd10   2.090       .  S
O4           C22   1.272       .  A
O4          Cd13   2.053       .  S
O5           C19   1.275       .  A
O5           Cd9   2.081       .  S
O6           C17   1.273       .  A
O6           Cd9   2.059       .  S
Zn7          O18   2.028       .  S
Zn7          O20   2.045       .  S
Zn7          O12   1.953       .  S
O8           C19   1.271       .  A
O8          Cd13   2.064       .  S
Cd9          O11   2.072       .  S
Cd9          O12   2.002       .  S
Cd10         O14   2.083       .  S
Cd10         O23   2.090       .  S
Cd10         O12   2.008       .  S
O11          C21   1.276       .  A
O12         Cd13   1.996       .  S
Cd13         O15   2.057       .  S
O14          C21   1.277       .  A
C16          O20   1.278       .  A
C16         C177   1.481       .  S
C17         C356   1.467       .  S
C19         C339   1.491       .  S
C21         C379   1.481       .  S
C22          O23   1.279       .  A
C22         C346   1.485       .  S
C24          C27   1.543       .  S
C24         C359   1.539       .  S
C24         C794   1.548   1_455  S
C24         C412   1.539       .  S
C25          C30   1.552       .  S
C25         C349   1.533       .  S
C25         C413   1.528       .  S
C25         C799   1.526       .  S
C26         C792   1.548       .  S
C26          C34   1.387       .  A
C26          C29   1.399       .  A
C27          C38   1.381       .  A
C27        C1182   1.407   1_455  A
C28         C408   1.539   1_545  S
C28          C42   1.386       .  A
C28          C31   1.397       .  A
C29         C409   1.528       .  S
C29          C32   1.377       .  A
C30          C36   1.384       .  A
C30        C1179   1.407   1_545  A
C31         C793   1.526   1_455  S
C31          C39   1.379       .  A
C32          N33   1.349       .  A
C32          H45   1.083       .  S
N33          C34   1.355       .  A
N33         C369   1.438       .  S
C34          H35   1.082       .  S
C36        N1189   1.356       .  A
C36          H46   1.080       .  S
N37          C38   1.356       .  A
N37        C1188   1.357   1_455  A
N37         C326   1.445   1_455  S
C38          H44   1.082       .  S
C39          N40   1.349       .  A
C39          H41   1.083       .  S
N40          C42   1.352       .  A
N40         C376   1.432       .  S
C42          H43   1.081       .  S
O47          C63   1.271       .  A
O47         Zn53   2.008   1_455  S
C48          O64   1.274       .  A
C48          O61   1.274       .  A
C48         C296   1.467       .  S
O49         C446   1.275   1_556  A
O49         Cd56   2.074       .  S
O50          C68   1.275       .  A
O50        Cd443   2.073       .  S
O51          C65   1.274   1_455  A
O51         Cd55   2.055       .  S
O52          C63   1.274       .  A
O52         Cd55   2.064   1_545  S
Zn53         O66   2.027       .  S
Zn53        O832   2.021       .  S
Zn53         O58   1.940   1_545  S
O54         C833   1.274       .  A
O54         Cd59   2.082   1_565  S
Cd55        O441   2.059       .  S
Cd55         O58   1.997   1_455  S
Cd56         O60   2.068   1_655  S
Cd56        O837   2.075       .  S
Cd56        O442   2.002       .  S
O57          C67   1.272       .  A
O57        Cd439   2.057       .  S
O58        Cd440   2.002       .  S
O58        Cd827   1.998   1_565  S
Cd59         O61   2.074       .  S
Cd59        O434   2.072   1_545  S
Cd59        O826   1.998   1_545  S
O60          C67   1.273       .  A
C62          O66   1.275   1_554  A
C62         O433   1.275   1_544  A
C62         C876   1.473       .  S
C63         C286   1.484       .  S
O64        Zn821   2.021       .  S
C65         O822   1.274       .  A
C65         C329   1.492       .  S
C67         C306   1.463       .  S
C68          O69   1.277       .  A
C68         C319   1.492       .  S
O69        Cd824   2.075       .  S
C70          C72   1.536       .  S
C70          C74   1.540       .  S
C70          C73   1.547       .  S
C70         C299   1.539       .  S
C71          C75   1.538       .  S
C71          C77   1.535       .  S
C71          C76   1.546       .  S
C71         C309   1.536       .  S
C72          C80   1.382       .  A
C72          C75   1.398       .  A
C73          C84   1.381       .  A
C73          C76   1.399       .  A
C74          C88   1.380       .  A
C74          C77   1.403       .  A
C75          C78   1.380       .  A
C76          C82   1.382       .  A
C77          C85   1.382       .  A
C78          N79   1.351       .  A
C78          H91   1.083       .  S
N79          C80   1.353       .  A
N79         C316   1.434       .  S
C80          H81   1.081       .  S
C82          N83   1.356       .  A
C82          H92   1.082       .  S
N83          C84   1.355       .  A
N83         C336   1.435       .  S
C84          H90   1.082       .  S
C85          N86   1.350       .  A
C85          H87   1.082       .  S
N86          C88   1.348       .  A
N86         C289   1.432       .  S
C88          H89   1.082       .  S
O93         C109   1.275       .  A
O93        Zn867   2.023       .  S
C94         O110   1.274       .  A
C94         O107   1.271       .  A
C94         C276   1.489       .  S
O95         C108   1.276       .  A
O95        Cd102   2.079       .  S
O96         C114   1.271       .  A
O96        Cd105   2.049       .  S
O97         C879   1.277       .  A
O97        Cd101   2.090       .  S
O98         C109   1.275       .  A
O98        Cd485   2.071       .  S
Zn99        O110   2.012       .  S
Zn99        O112   2.030       .  S
Zn99        O861   2.023       .  S
Zn99        O488   1.949       .  S
O100        C111   1.271       .  A
O100       Cd105   2.065       .  S
Cd101       O103   2.080       .  S
Cd101       O482   2.072   1_545  S
Cd101       O872   2.000       .  S
Cd102       O115   2.081       .  S
Cd102       O874   2.088       .  S
Cd102       O104   2.009       .  S
O103        C113   1.278       .  A
O104       Zn483   1.949   1_545  S
O104       Cd105   1.993       .  S
O104       Cd869   2.000       .  S
Cd105       O491   2.059   1_545  S
O106        C113   1.277       .  A
O106       Cd870   2.088   1_455  S
O107       Cd489   2.058       .  S
C108        O496   1.276   1_545  A
C108        C830   1.473       .  S
C109        C256   1.467       .  S
C111        O865   1.277       .  A
C111        C236   1.498       .  S
O112        C492   1.276       .  A
C113        C246   1.485       .  S
C114        O115   1.277       .  A
C114        C266   1.479       .  S
C116        C118   1.550       .  S
C116        C120   1.535       .  S
C116        C119   1.545       .  S
C116        C259   1.538       .  S
C117        C121   1.534       .  S
C117        C123   1.528       .  S
C117        C122   1.558       .  S
C117        C269   1.531       .  S
C118        C126   1.386       .  A
C118        C121   1.405       .  A
C119        C130   1.380       .  A
C119        C122   1.401       .  A
C120        C134   1.383       .  A
C120        C123   1.387       .  A
C121        C124   1.380       .  A
C122        C128   1.389       .  A
C123        C131   1.378       .  A
C124        N125   1.349       .  A
C124        H137   1.083       .  S
N125        C126   1.353       .  A
N125        C279   1.438       .  S
C126        H127   1.082       .  S
C128        N129   1.359       .  A
C128        H138   1.078       .  S
N129        C130   1.357       .  A
N129        C226   1.445       .  S
C130        H136   1.082       .  S
C131        N132   1.354       .  A
C131        H133   1.083       .  S
N132        C134   1.357       .  A
N132        C249   1.435       .  S
C134        H135   1.082       .  S
C139        C141   1.528       .  S
C139        C142   1.554       .  S
C139        C209   1.530       .  S
C139        C911   1.538       .  S
C140        C196   1.534       .  S
C140        C912   1.536       .  S
C140        C530   1.543       .  S
C140        C529   1.544       .  S
C141        C533   1.379   1_545  A
C141        C528   1.385   1_545  A
C142        C153   1.384       .  A
C142        C913   1.399       .  A
C143        C907   1.538   1_455  S
C143        C157   1.385       .  A
C143        C146   1.407       .  A
C144        C908   1.536       .  S
C144        C147   1.380       .  A
C144        C525   1.385       .  A
C145        C524   1.544   1_545  S
C145        C910   1.399   1_455  A
C145        C535   1.380   1_545  A
C146        C524   1.543   1_545  S
C146        C154   1.386       .  A
C147        N148   1.357       .  A
C147        H160   1.081       .  S
N148        C149   1.354       .  A
N148        C216   1.437       .  S
C149        C525   1.379       .  A
C149        H534   1.082       .  S
H150        C533   1.082   1_545  S
C151        C529   1.380       .  A
C151       N1304   1.357       .  A
C151        H161   1.081       .  S
N152        C153   1.358       .  A
N152       C1303   1.357   1_545  A
N152        C239   1.440       .  S
C153        H159   1.081       .  S
C154        N155   1.348       .  A
C154        H156   1.081       .  S
N155        C157   1.350       .  A
N155        C189   1.433       .  S
C157        H158   1.080       .  S
O162        C178   1.276       .  A
O162       Zn168   2.037       .  S
C163        O179   1.279       .  A
C163        O176   1.270       .  A
C163        C206   1.484       .  S
O164        C177   1.276       .  A
O164       Cd171   2.082       .  S
O165        C183   1.271       .  A
O165       Cd174   2.059       .  S
O166        C180   1.273       .  A
O166       Cd170   2.080       .  S
O167        C178   1.273       .  A
O167       Cd170   2.061       .  S
Zn168       O179   2.041       .  S
Zn168       O181   2.052       .  S
Zn168       O173   1.960       .  S
O169        C180   1.275       .  A
O169       Cd174   2.082       .  S
Cd170       O172   2.057       .  S
Cd170       O173   1.996       .  S
Cd171       O175   2.072       .  S
Cd171       O184   2.080       .  S
Cd171       O173   2.002       .  S
O172        C182   1.275       .  A
O173       Cd174   1.993       .  S
Cd174       O176   2.038       .  S
O175        C182   1.274       .  A
C177        O181   1.278       .  A
C178        C186   1.472       .  S
C180        C229   1.501       .  S
C182        C199   1.489       .  S
C183        O184   1.277       .  A
C183        C219   1.493       .  S
C185        C186   1.403       .  A
C185        C190   1.400       .  A
C185        H192   1.082       .  S
C186        C187   1.409       .  A
C187        C188   1.401       .  A
C187       Br194   1.920       .  S
C188        C189   1.403       .  A
C188        H193   1.082       .  S
C189        C190   1.405       .  A
C190       Br191   1.916       .  S
C195        C196   1.411       .  A
C195        C200   1.396       .  A
C195        H202   1.082       .  S
C196        C197   1.419       .  A
C197        C198   1.397       .  A
C197       Br204   1.925       .  S
C198        C199   1.406       .  A
C198        H203   1.086       .  S
C199        C200   1.413       .  A
C200       Br201   1.925       .  S
C205        C206   1.401       .  A
C205        C210   1.397       .  A
C205        H212   1.083       .  S
C206        C207   1.416       .  A
C207        C208   1.395       .  A
C207       Br214   1.925       .  S
C208        C209   1.403       .  A
C208        H213   1.076       .  S
C209        C210   1.422       .  A
C210       Br211   1.926       .  S
C215        C216   1.399       .  A
C215        C220   1.398       .  A
C215        H222   1.083       .  S
C216        C217   1.406       .  A
C217        C218   1.399       .  A
C217       Br224   1.918       .  S
C218        C219   1.410       .  A
C218        H223   1.083       .  S
C219        C220   1.421       .  A
C220       Br221   1.924       .  S
C225        C226   1.402       .  A
C225        C230   1.402       .  A
C225        H232   1.083       .  S
C226        C227   1.409       .  A
C227        C228   1.404       .  A
C227       Br234   1.918       .  S
C228        C229   1.412       .  A
C228        H233   1.083       .  S
C229        C230   1.421       .  A
C230       Br231   1.923       .  S
C235        C236   1.411       .  A
C235        C240   1.402       .  A
C235        H242   1.083       .  S
C236       C1389   1.422       .  A
C237        C238   1.401       .  A
C237       C1388   1.422   1_655  A
C237       Br244   1.924       .  S
C238       C1391   1.400   1_655  A
C238        H243   1.083       .  S
C239        C240   1.406       .  A
C239       C1390   1.400       .  A
C240       Br241   1.917       .  S
C245        C246   1.406       .  A
C245        C250   1.398       .  A
C245        H252   1.083       .  S
C246        C247   1.414       .  A
C247        C248   1.405       .  A
C247       Br254   1.916       .  S
C248        C249   1.401       .  A
C248        H253   1.083       .  S
C249        C250   1.405       .  A
C250       Br251   1.917       .  S
C255        C256   1.400       .  A
C255        C260   1.403       .  A
C255        H262   1.084       .  S
C256        C257   1.398       .  A
C257        C258   1.395       .  A
C257       Br264   1.919       .  S
C258        C259   1.415       .  A
C258        H263   1.080       .  S
C259        C260   1.422       .  A
C260       Br261   1.924       .  S
C265        C266   1.400       .  A
C265        C270   1.397       .  A
C265        H272   1.084       .  S
C266        C267   1.412       .  A
C267        C268   1.396       .  A
C267       Br274   1.923       .  S
C268        C269   1.403       .  A
C268        H273   1.072       .  S
C269        C270   1.424       .  A
C270       Br271   1.926       .  S
C275        C276   1.410       .  A
C275        C280   1.397       .  A
C275        H282   1.083       .  S
C276        C277   1.419       .  A
C277        C278   1.397       .  A
C277       Br284   1.924       .  S
C278        C279   1.402       .  A
C278        H283   1.083       .  S
C279        C280   1.408       .  A
C280       Br281   1.919       .  S
C285        C286   1.408       .  A
C285        C290   1.397       .  A
C285        H292   1.083       .  S
C286        C287   1.418       .  A
C287        C288   1.397       .  A
C287       Br294   1.921       .  S
C288        C289   1.397       .  A
C288        H293   1.083       .  S
C289        C290   1.408       .  A
C290       Br291   1.921       .  S
C295        C296   1.399       .  A
C295        C300   1.402       .  A
C295        H302   1.084       .  S
C296        C297   1.399       .  A
C297        C298   1.395       .  A
C297       Br304   1.919       .  S
C298        C299   1.416       .  A
C298        H303   1.080       .  S
C299        C300   1.423       .  A
C300       Br301   1.924       .  S
C305        C306   1.397       .  A
C305        C310   1.399       .  A
C305        H312   1.084       .  S
C306        C307   1.399       .  A
C307        C308   1.396       .  A
C307       Br314   1.920       .  S
C308        C309   1.416       .  A
C308        H313   1.081       .  S
C309        C310   1.422       .  A
C310       Br311   1.922       .  S
C315        C316   1.399       .  A
C315        C320   1.398       .  A
C315        H322   1.083       .  S
C316        C317   1.403       .  A
C317        C318   1.400       .  A
C317       Br324   1.918       .  S
C318        C319   1.412       .  A
C318        H323   1.083       .  S
C319        C320   1.420       .  A
C320       Br321   1.923       .  S
C325        C330   1.402       .  A
C325       C1094   1.406       .  A
C325        H332   1.083       .  S
C326       C1093   1.406       .  A
C326        C711   1.412   1_655  A
C327        C328   1.396       .  A
C327        C710   1.412   1_455  A
C327       Br334   1.918       .  S
C328        C329   1.408   1_455  A
C328        H333   1.083       .  S
C329       C1482   1.417   1_565  A
C330       C1481   1.417       .  A
C330       Br331   1.922       .  S
C335        C336   1.399       .  A
C335        C340   1.401       .  A
C335        H342   1.083       .  S
C336        C337   1.403       .  A
C337        C338   1.401       .  A
C337       Br344   1.915       .  S
C338        C339   1.409       .  A
C338        H343   1.083       .  S
C339        C340   1.420       .  A
C340       Br341   1.923       .  S
C345        C346   1.400       .  A
C345        C350   1.397       .  A
C345        H352   1.083       .  S
C346        C347   1.415       .  A
C347        C348   1.399       .  A
C347       Br354   1.923       .  S
C348        C349   1.404       .  A
C348        H353   1.077       .  S
C349        C350   1.423       .  A
C350       Br351   1.926       .  S
C355        C356   1.398       .  A
C355        C360   1.402       .  A
C355        H362   1.084       .  S
C356        C357   1.398       .  A
C357        C358   1.397       .  A
C357       Br364   1.919       .  S
C358        C359   1.414       .  A
C358        H363   1.080       .  S
C359        C360   1.424       .  A
C360       Br361   1.922       .  S
C365        C366   1.408       .  A
C365        C370   1.397       .  A
C365        H372   1.083       .  S
C366        C367   1.421       .  A
C367        C368   1.400       .  A
C367       Br374   1.924       .  S
C368        C369   1.401       .  A
C368        H373   1.083       .  S
C369        C370   1.409       .  A
C370       Br371   1.920       .  S
C375        C376   1.399       .  A
C375        C380   1.401       .  A
C375        H382   1.083       .  S
C376        C377   1.406       .  A
C377        C378   1.399       .  A
C377       Br384   1.918       .  S
C378        C379   1.406       .  A
C378        H383   1.083       .  S
C379        C380   1.413       .  A
C380       Br381   1.919       .  S
O385        C401   1.276       .  A
O385       Zn391   2.034       .  S
C386        O402   1.277       .  A
C386        O399   1.270       .  A
C386        C750   1.491       .  S
O387        C400   1.277       .  A
O387       Cd394   2.090       .  S
O388        C406   1.272       .  A
O388       Cd397   2.053       .  S
O389        C403   1.275       .  A
O389       Cd393   2.081       .  S
O390        C401   1.273       .  A
O390       Cd393   2.059       .  S
Zn391       O402   2.028       .  S
Zn391       O404   2.045       .  S
Zn391       O396   1.953       .  S
O392        C403   1.271       .  A
O392       Cd397   2.063       .  S
Cd393       O395   2.072       .  S
Cd393       O396   2.002       .  S
Cd394       O398   2.083       .  S
Cd394       O407   2.090       .  S
Cd394       O396   2.008       .  S
O395        C405   1.276       .  A
O396       Cd397   1.995       .  S
Cd397       O399   2.057       .  S
O398        C405   1.277       .  A
C400        O404   1.278       .  A
C400        C561   1.481       .  S
C401        C740   1.467       .  S
C403        C723   1.490       .  S
C405        C763   1.481       .  S
C406        O407   1.279       .  A
C406        C730   1.485       .  S
C408       C1178   1.548   1_455  S
C408        C411   1.543       .  S
C408        C743   1.538       .  S
C409       C1183   1.526       .  S
C409        C414   1.553       .  S
C409        C733   1.533       .  S
C410       C1176   1.548       .  S
C410        C418   1.387       .  A
C410        C413   1.399   1_565  A
C411        C422   1.381       .  A
C411        C798   1.407   1_465  A
C412        C426   1.386       .  A
C412        C415   1.397       .  A
C413        C416   1.377   1_545  A
C414        C795   1.407       .  A
C414        C420   1.384       .  A
C415       C1177   1.526   1_455  S
C415        C423   1.378       .  A
C416        N417   1.349       .  A
C416        H429   1.083   1_565  S
N417        C418   1.355       .  A
N417        C753   1.438       .  S
C418        H419   1.082       .  S
C420        N805   1.357       .  A
C420        H430   1.080       .  S
N421        C804   1.356   1_455  A
N421        C422   1.356   1_545  A
N421        C710   1.445   1_445  S
C422        H428   1.082       .  S
C423        N424   1.349       .  A
C423        H425   1.083       .  S
N424        C426   1.352       .  A
N424        C760   1.432       .  S
C426        H427   1.081       .  S
O431        C447   1.271       .  A
O431       Zn437   2.008   1_455  S
C432        O448   1.274       .  A
C432        O445   1.274       .  A
C432        C680   1.467       .  S
O433       Cd440   2.074       .  S
O434        C452   1.274       .  A
O435        C449   1.274   1_455  A
O435       Cd439   2.055       .  S
O436        C447   1.274       .  A
O436       Cd439   2.064       .  S
Zn437      O1216   2.020       .  S
Zn437       O450   2.027       .  S
Zn437       O442   1.940       .  S
O438       C1217   1.274       .  A
O438       Cd443   2.083       .  S
Cd439       O442   1.997   1_455  S
Cd440       O444   2.069   1_655  S
Cd440      O1221   2.075       .  S
O441        C451   1.272       .  A
O442      Cd1211   1.998       .  S
Cd443       O445   2.074       .  S
Cd443      O1210   1.998       .  S
O444        C451   1.273       .  A
C446        O450   1.275   1_554  A
C446       C1260   1.473       .  S
C447        C670   1.485       .  S
O448      Zn1205   2.020       .  S
C449       O1206   1.274       .  A
C449        C713   1.493       .  S
C451        C690   1.464       .  S
C452        O453   1.277       .  A
C452        C703   1.492       .  S
O453      Cd1208   2.075       .  S
C454        C456   1.536       .  S
C454        C458   1.540       .  S
C454        C457   1.546       .  S
C454        C683   1.539       .  S
C455        C459   1.538       .  S
C455        C461   1.535       .  S
C455        C460   1.546       .  S
C455        C693   1.536       .  S
C456        C464   1.382       .  A
C456        C459   1.398       .  A
C457        C468   1.380       .  A
C457        C460   1.399       .  A
C458        C472   1.380       .  A
C458        C461   1.403       .  A
C459        C462   1.380       .  A
C460        C466   1.381       .  A
C461        C469   1.382       .  A
C462        N463   1.351       .  A
C462        H475   1.083       .  S
N463        C464   1.353       .  A
N463        C700   1.434       .  S
C464        H465   1.081       .  S
C466        N467   1.356       .  A
C466        H476   1.082       .  S
N467        C468   1.355       .  A
N467        C720   1.434       .  S
C468        H474   1.082       .  S
C469        N470   1.350       .  A
C469        H471   1.082       .  S
N470        C472   1.348       .  A
N470        C673   1.432       .  S
C472        H473   1.082       .  S
O477        C493   1.275       .  A
O477      Zn1251   2.023       .  S
C478        O494   1.274       .  A
C478        O491   1.271       .  A
C478        C660   1.490       .  S
O479        C492   1.276       .  A
O479       Cd486   2.080       .  S
O480        C498   1.271       .  A
O480       Cd489   2.049       .  S
O481       C1263   1.277       .  A
O481       Cd485   2.090       .  S
O482        C493   1.275       .  A
Zn483      O1245   2.023       .  S
Zn483       O494   2.013       .  S
Zn483       O496   2.030       .  S
O484        C495   1.271       .  A
O484       Cd489   2.065       .  S
Cd485       O487   2.079       .  S
Cd485      O1256   2.000       .  S
Cd486      O1258   2.087       .  S
Cd486       O499   2.081       .  S
Cd486       O488   2.008       .  S
O487        C497   1.278       .  A
O488      Cd1253   2.000       .  S
O488       Cd489   1.993       .  S
O490        C497   1.277       .  A
O490      Cd1254   2.087   1_455  S
C492       C1214   1.473       .  S
C493        C640   1.468       .  S
C495       O1249   1.277       .  A
C495        C620   1.498       .  S
C497        C630   1.486       .  S
C498        O499   1.277       .  A
C498        C650   1.479       .  S
C500        C502   1.550       .  S
C500        C504   1.535       .  S
C500        C503   1.545       .  S
C500        C643   1.537       .  S
C501        C505   1.534       .  S
C501        C507   1.528       .  S
C501        C506   1.558       .  S
C501        C653   1.531       .  S
C502        C510   1.386       .  A
C502        C505   1.405       .  A
C503        C514   1.380       .  A
C503        C506   1.400       .  A
C504        C518   1.383       .  A
C504        C507   1.387       .  A
C505        C508   1.381       .  A
C506        C512   1.389       .  A
C507        C515   1.378       .  A
C508        N509   1.349       .  A
C508        H521   1.083       .  S
N509        C510   1.353       .  A
N509        C663   1.438       .  S
C510        H511   1.082       .  S
C512        N513   1.359       .  A
C512        H522   1.078       .  S
N513        C514   1.357       .  A
N513        C610   1.445       .  S
C514        H520   1.082       .  S
C515        N516   1.354       .  A
C515        H517   1.083       .  S
N516        C518   1.356       .  A
N516        C633   1.435       .  S
C518        H519   1.082       .  S
C523        C525   1.528       .  S
C523       C1295   1.538       .  S
C523        C526   1.554       .  S
C523        C593   1.530       .  S
C524       C1296   1.536       .  S
C524        C580   1.534       .  S
C526        C537   1.384       .  A
C526       C1297   1.399       .  A
C527       C1291   1.538   1_455  S
C527        C541   1.385       .  A
C527        C530   1.408       .  A
C528       C1292   1.536       .  S
C528        C531   1.380       .  A
C529       C1294   1.399   1_455  A
C530        C538   1.386       .  A
C531        N532   1.357       .  A
C531        H544   1.081       .  S
N532        C533   1.354       .  A
N532        C600   1.437       .  S
C535        N920   1.357   1_565  A
C535        H545   1.081       .  S
N536        C919   1.357       .  A
N536        C537   1.358       .  A
N536        C623   1.440       .  S
C537        H543   1.081       .  S
C538        N539   1.348       .  A
C538        H540   1.081       .  S
N539        C541   1.350       .  A
N539        C573   1.433       .  S
C541        H542   1.080       .  S
O546        C562   1.276       .  A
O546       Zn552   2.036       .  S
C547        O563   1.279       .  A
C547        O560   1.270       .  A
C547        C590   1.484       .  S
O548        C561   1.276       .  A
O548       Cd555   2.083       .  S
O549        C567   1.271       .  A
O549       Cd558   2.059       .  S
O550        C564   1.273       .  A
O550       Cd554   2.080       .  S
O551        C562   1.273       .  A
O551       Cd554   2.061       .  S
Zn552       O563   2.041       .  S
Zn552       O565   2.052       .  S
Zn552       O557   1.960       .  S
O553        C564   1.275       .  A
O553       Cd558   2.083       .  S
Cd554       O556   2.057       .  S
Cd554       O557   1.996       .  S
Cd555       O559   2.073       .  S
Cd555       O568   2.081       .  S
Cd555       O557   2.002       .  S
O556        C566   1.275       .  A
O557       Cd558   1.993       .  S
Cd558       O560   2.039       .  S
O559        C566   1.274       .  A
C561        O565   1.278       .  A
C562        C570   1.471       .  S
C564        C613   1.501       .  S
C566        C583   1.489       .  S
C567        O568   1.277       .  A
C567        C603   1.493       .  S
C569        C570   1.403       .  A
C569        C574   1.400       .  A
C569        H576   1.082       .  S
C570        C571   1.409       .  A
C571        C572   1.401       .  A
C571       Br578   1.920       .  S
C572        C573   1.403       .  A
C572        H577   1.082       .  S
C573        C574   1.405       .  A
C574       Br575   1.916       .  S
C579        C580   1.411       .  A
C579        C584   1.396       .  A
C579        H586   1.081       .  S
C580        C581   1.419       .  A
C581        C582   1.397       .  A
C581       Br588   1.925       .  S
C582        C583   1.406       .  A
C582        H587   1.086       .  S
C583        C584   1.413       .  A
C584       Br585   1.925       .  S
C589        C590   1.401       .  A
C589        C594   1.398       .  A
C589        H596   1.083       .  S
C590        C591   1.416       .  A
C591        C592   1.395       .  A
C591       Br598   1.925       .  S
C592        C593   1.403       .  A
C592        H597   1.075       .  S
C593        C594   1.423       .  A
C594       Br595   1.926       .  S
C599        C600   1.399       .  A
C599        C604   1.398       .  A
C599        H606   1.083       .  S
C600        C601   1.406       .  A
C601        C602   1.399       .  A
C601       Br608   1.918       .  S
C602        C603   1.410       .  A
C602        H607   1.083       .  S
C603        C604   1.421       .  A
C604       Br605   1.924       .  S
C609        C610   1.402       .  A
C609        C614   1.402       .  A
C609        H616   1.083       .  S
C610        C611   1.409       .  A
C611        C612   1.404       .  A
C611       Br618   1.918       .  S
C612        C613   1.412       .  A
C612        H617   1.083       .  S
C613        C614   1.421       .  A
C614       Br615   1.923       .  S
C619        C620   1.411       .  A
C619        C624   1.402       .  A
C619        H626   1.083       .  S
C620       C1005   1.422       .  A
C621       C1004   1.422   1_655  A
C621        C622   1.401       .  A
C621       Br628   1.924   1_545  S
C622       C1007   1.400   1_655  A
C622        H627   1.083       .  S
C623       C1006   1.400       .  A
C623        C624   1.407       .  A
C624       Br625   1.917       .  S
C629        C630   1.406       .  A
C629        C634   1.398       .  A
C629        H636   1.083       .  S
C630        C631   1.415       .  A
C631        C632   1.404       .  A
C631       Br638   1.915       .  S
C632        C633   1.401       .  A
C632        H637   1.083       .  S
C633        C634   1.405       .  A
C634       Br635   1.917       .  S
C639        C640   1.400       .  A
C639        C644   1.403       .  A
C639        H646   1.084       .  S
C640        C641   1.398       .  A
C641        C642   1.395       .  A
C641       Br648   1.919       .  S
C642        C643   1.414       .  A
C642        H647   1.080       .  S
C643        C644   1.422       .  A
C644       Br645   1.924       .  S
C649        C650   1.400       .  A
C649        C654   1.397       .  A
C649        H656   1.084       .  S
C650        C651   1.412       .  A
C651        C652   1.396       .  A
C651       Br658   1.923       .  S
C652        C653   1.403       .  A
C652        H657   1.072       .  S
C653        C654   1.424       .  A
C654       Br655   1.926       .  S
C659        C660   1.410       .  A
C659        C664   1.397       .  A
C659        H666   1.083       .  S
C660        C661   1.419       .  A
C661        C662   1.398       .  A
C661       Br668   1.924       .  S
C662        C663   1.402       .  A
C662        H667   1.083       .  S
C663        C664   1.408       .  A
C664       Br665   1.919       .  S
C669        C670   1.408       .  A
C669        C674   1.397       .  A
C669        H676   1.083       .  S
C670        C671   1.418       .  A
C671        C672   1.397       .  A
C671       Br678   1.921       .  S
C672        C673   1.397       .  A
C672        H677   1.083       .  S
C673        C674   1.408       .  A
C674       Br675   1.921       .  S
C679        C680   1.398       .  A
C679        C684   1.401       .  A
C679        H686   1.084       .  S
C680        C681   1.399       .  A
C681        C682   1.395       .  A
C681       Br688   1.919       .  S
C682        C683   1.416       .  A
C682        H687   1.080       .  S
C683        C684   1.423       .  A
C684       Br685   1.924       .  S
C689        C690   1.397       .  A
C689        C694   1.399       .  A
C689        H696   1.084       .  S
C690        C691   1.399       .  A
C691        C692   1.396       .  A
C691       Br698   1.920       .  S
C692        C693   1.416       .  A
C692        H697   1.081       .  S
C693        C694   1.422       .  A
C694       Br695   1.922       .  S
C699        C700   1.399       .  A
C699        C704   1.398       .  A
C699        H706   1.083       .  S
C700        C701   1.403       .  A
C701        C702   1.400       .  A
C701       Br708   1.918       .  S
C702        C703   1.411       .  A
C702        H707   1.083       .  S
C703        C704   1.420       .  A
C704       Br705   1.923       .  S
C709       C1478   1.406   1_545  A
C709        C714   1.402       .  A
C709        H716   1.083       .  S
C710       C1477   1.406   1_565  A
C711        C712   1.396       .  A
C711       Br718   1.918       .  S
C712        C713   1.408   1_455  A
C712        H717   1.083       .  S
C713       C1098   1.417       .  A
C714       C1097   1.417   1_545  A
C714       Br715   1.922       .  S
C719        C720   1.399       .  A
C719        C724   1.401       .  A
C719        H726   1.083       .  S
C720        C721   1.403       .  A
C721        C722   1.400       .  A
C721       Br728   1.915       .  S
C722        C723   1.409       .  A
C722        H727   1.083       .  S
C723        C724   1.420       .  A
C724       Br725   1.923       .  S
C729        C730   1.400       .  A
C729        C734   1.397       .  A
C729        H736   1.083       .  S
C730        C731   1.415       .  A
C731        C732   1.399       .  A
C731       Br738   1.923       .  S
C732        C733   1.405       .  A
C732        H737   1.076       .  S
C733        C734   1.423       .  A
C734       Br735   1.926       .  S
C739        C740   1.399       .  A
C739        C744   1.402       .  A
C739        H746   1.084       .  S
C740        C741   1.398       .  A
C741        C742   1.396       .  A
C741       Br748   1.919       .  S
C742        C743   1.414       .  A
C742        H747   1.080       .  S
C743        C744   1.424       .  A
C744       Br745   1.923       .  S
C749        C750   1.408       .  A
C749        C754   1.396       .  A
C749        H756   1.083       .  S
C750        C751   1.421       .  A
C751        C752   1.400       .  A
C751       Br758   1.924       .  S
C752        C753   1.401       .  A
C752        H757   1.083       .  S
C753        C754   1.408       .  A
C754       Br755   1.920       .  S
C759        C760   1.399       .  A
C759        C764   1.401       .  A
C759        H766   1.083       .  S
C760        C761   1.406       .  A
C761        C762   1.399       .  A
C761       Br768   1.918       .  S
C762        C763   1.406       .  A
C762        H767   1.083       .  S
C763        C764   1.413       .  A
C764       Br765   1.919       .  S
O769        C785   1.276       .  A
O769       Zn775   2.034       .  S
C770        O786   1.276       .  A
C770        O783   1.270       .  A
C770       C1134   1.492       .  S
O771        C784   1.277       .  A
O771       Cd778   2.090       .  S
O772        C790   1.272       .  A
O772       Cd781   2.053       .  S
O773        C787   1.275       .  A
O773       Cd777   2.081       .  S
O774        C785   1.273       .  A
O774       Cd777   2.059       .  S
Zn775       O786   2.028       .  S
Zn775       O788   2.045       .  S
Zn775       O780   1.953       .  S
O776        C787   1.271       .  A
O776       Cd781   2.064       .  S
Cd777       O779   2.072       .  S
Cd777       O780   2.002       .  S
Cd778       O782   2.083       .  S
Cd778       O791   2.090       .  S
Cd778       O780   2.008       .  S
O779        C789   1.276       .  A
O780       Cd781   1.996       .  S
Cd781       O783   2.057       .  S
O782        C789   1.277       .  A
C784        O788   1.278       .  A
C784        C945   1.481       .  S
C785       C1124   1.467       .  S
C787       C1107   1.491       .  S
C789       C1147   1.481       .  S
C790        O791   1.279       .  A
C790       C1114   1.485       .  S
C792       C1180   1.539       .  S
C792        C795   1.543       .  S
C792       C1127   1.539       .  S
C793       C1181   1.528       .  S
C793        C798   1.552       .  S
C793       C1117   1.533       .  S
C794        C802   1.387       .  A
C794        C797   1.399       .  A
C795        C806   1.381       .  A
C796       C1176   1.539   1_545  S
C796        C810   1.386       .  A
C796        C799   1.397       .  A
C797       C1177   1.528       .  S
C797        C800   1.377       .  A
C798        C804   1.384       .  A
C799        C807   1.379       .  A
C800        N801   1.349       .  A
C800        H813   1.083       .  S
N801        C802   1.355       .  A
N801       C1137   1.438       .  S
C802        H803   1.082       .  S
C804        H814   1.080       .  S
N805        C806   1.356       .  A
N805       C1094   1.445       .  S
C806        H812   1.082       .  S
C807        N808   1.349       .  A
C807        H809   1.083       .  S
N808        C810   1.352       .  A
N808       C1144   1.432       .  S
C810        H811   1.081       .  S
O815        C831   1.271       .  A
O815       Zn821   2.008       .  S
C816        O832   1.274       .  A
C816        O829   1.274       .  A
C816       C1064   1.467       .  S
O817       C1214   1.275   1_556  A
O817       Cd824   2.074       .  S
O818        C836   1.275       .  A
O818      Cd1211   2.073       .  S
O819        C833   1.274       .  A
O819       Cd823   2.055       .  S
O820        C831   1.274       .  A
O820       Cd823   2.064   1_545  S
Zn821       O834   2.027       .  S
Zn821       O826   1.940   1_545  S
O822       Cd827   2.082   1_565  S
Cd823      O1209   2.059       .  S
Cd823       O826   1.997       .  S
Cd824       O828   2.068       .  S
Cd824      O1210   2.002       .  S
O825        C835   1.272       .  A
O825      Cd1207   2.057       .  S
O826      Cd1208   2.002       .  S
Cd827      O1202   2.072   1_545  S
Cd827       O829   2.074       .  S
O828        C835   1.273       .  A
C830       O1201   1.275   1_544  A
C830        O834   1.275   1_554  A
C831       C1054   1.484       .  S
C833       C1097   1.492       .  S
C835       C1074   1.463       .  S
C836        O837   1.277       .  A
C836       C1087   1.492       .  S
C838        C840   1.536       .  S
C838        C842   1.540       .  S
C838        C841   1.547       .  S
C838       C1067   1.539       .  S
C839        C843   1.538       .  S
C839        C845   1.535       .  S
C839        C844   1.546       .  S
C839       C1077   1.536       .  S
C840        C848   1.382       .  A
C840        C843   1.398       .  A
C841        C852   1.381       .  A
C841        C844   1.399       .  A
C842        C856   1.380       .  A
C842        C845   1.403       .  A
C843        C846   1.380       .  A
C844        C850   1.382       .  A
C845        C853   1.382       .  A
C846        N847   1.351       .  A
C846        H859   1.083       .  S
N847        C848   1.353       .  A
N847       C1084   1.434       .  S
C848        H849   1.081       .  S
C850        N851   1.356       .  A
C850        H860   1.082       .  S
N851        C852   1.355       .  A
N851       C1104   1.435       .  S
C852        H858   1.082       .  S
C853        N854   1.350       .  A
C853        H855   1.082       .  S
N854        C856   1.348       .  A
N854       C1057   1.432       .  S
C856        H857   1.082       .  S
O861        C877   1.275       .  A
C862        O878   1.274       .  A
C862        O875   1.271       .  A
C862       C1044   1.489       .  S
O863        C876   1.276       .  A
O863       Cd870   2.079       .  S
O864        C882   1.271       .  A
O864       Cd873   2.049       .  S
O865       Cd869   2.090       .  S
O866        C877   1.275       .  A
O866      Cd1253   2.071       .  S
Zn867       O878   2.012   1_455  S
Zn867       O880   2.030   1_455  S
Zn867      O1256   1.949       .  S
O868        C879   1.271   1_655  A
O868       Cd873   2.065       .  S
Cd869      O1250   2.072   1_545  S
Cd869       O871   2.080       .  S
Cd870       O883   2.081       .  S
Cd870       O872   2.009   1_655  S
O871        C881   1.278       .  A
O872      Zn1251   1.949   1_545  S
O872       Cd873   1.993   1_455  S
Cd873      O1259   2.059   1_545  S
O874        C881   1.277       .  A
O875      Cd1257   2.058       .  S
C876       O1264   1.276   1_545  A
C877       C1024   1.467       .  S
C879       C1004   1.498       .  S
O880       C1260   1.276       .  A
C881       C1014   1.485       .  S
C882        O883   1.277       .  A
C882       C1034   1.479       .  S
C884        C886   1.550       .  S
C884        C888   1.535       .  S
C884        C887   1.545       .  S
C884       C1027   1.538       .  S
C885        C889   1.534       .  S
C885        C891   1.528       .  S
C885        C890   1.558       .  S
C885       C1037   1.531       .  S
C886        C894   1.386       .  A
C886        C889   1.405       .  A
C887        C898   1.380       .  A
C887        C890   1.401       .  A
C888        C902   1.383       .  A
C888        C891   1.387       .  A
C889        C892   1.380       .  A
C890        C896   1.389       .  A
C891        C899   1.378       .  A
C892        N893   1.349       .  A
C892        H905   1.083       .  S
N893        C894   1.353       .  A
N893       C1047   1.438       .  S
C894        H895   1.082       .  S
C896        N897   1.359       .  A
C896        H906   1.078       .  S
N897        C898   1.357       .  A
N897        C994   1.445       .  S
C898        H904   1.082       .  S
C899        N900   1.354       .  A
C899        H901   1.083       .  S
N900        C902   1.357       .  A
N900       C1017   1.435       .  S
C902        H903   1.082       .  S
C907        C909   1.528       .  S
C907        C910   1.554       .  S
C907        C977   1.530       .  S
C908       C1298   1.543       .  S
C908       C1297   1.544       .  S
C908        C964   1.534       .  S
C909       C1301   1.379   1_545  A
C909       C1296   1.385   1_645  A
C910        C921   1.384       .  A
C911        C925   1.385       .  A
C911        C914   1.407       .  A
C912       C1293   1.385   1_455  A
C912        C915   1.380   1_455  A
C913       C1292   1.544   1_545  S
C913       C1303   1.380   1_545  A
C914       C1292   1.543   1_545  S
C914        C922   1.386       .  A
C915        N916   1.357       .  A
C915        H928   1.081   1_655  S
N916        C917   1.354       .  A
N916        C984   1.437       .  S
C917       C1293   1.379       .  A
C917       H1302   1.082       .  S
H918       C1301   1.082   1_545  S
C919       C1297   1.380       .  A
C919        H929   1.081       .  S
N920        C921   1.358   1_455  A
N920       C1007   1.440       .  S
C921        H927   1.081       .  S
C922        N923   1.348       .  A
C922        H924   1.081       .  S
N923        C925   1.350       .  A
N923        C957   1.433       .  S
C925        H926   1.080       .  S
O930        C946   1.276       .  A
O930       Zn936   2.037       .  S
C931        O947   1.279       .  A
C931        O944   1.270       .  A
C931        C974   1.484       .  S
O932        C945   1.276       .  A
O932       Cd939   2.082       .  S
O933        C951   1.271       .  A
O933       Cd942   2.059       .  S
O934        C948   1.273       .  A
O934       Cd938   2.080       .  S
O935        C946   1.273       .  A
O935       Cd938   2.061       .  S
Zn936       O947   2.041       .  S
Zn936       O949   2.052       .  S
Zn936       O941   1.960       .  S
O937        C948   1.275       .  A
O937       Cd942   2.082       .  S
Cd938       O940   2.057       .  S
Cd938       O941   1.996       .  S
Cd939       O943   2.072       .  S
Cd939       O952   2.080       .  S
Cd939       O941   2.002       .  S
O940        C950   1.275       .  A
O941       Cd942   1.993       .  S
Cd942       O944   2.038       .  S
O943        C950   1.274       .  A
C945        O949   1.278       .  A
C946        C954   1.472       .  S
C948        C997   1.501       .  S
C950        C967   1.489       .  S
C951        O952   1.277       .  A
C951        C987   1.493       .  S
C953        C954   1.403       .  A
C953        C958   1.400       .  A
C953        H960   1.082       .  S
C954        C955   1.409       .  A
C955        C956   1.401       .  A
C955       Br962   1.920       .  S
C956        C957   1.403       .  A
C956        H961   1.082       .  S
C957        C958   1.405       .  A
C958       Br959   1.916       .  S
C963        C964   1.411       .  A
C963        C968   1.396       .  A
C963        H970   1.082       .  S
C964        C965   1.419       .  A
C965        C966   1.397       .  A
C965       Br972   1.925       .  S
C966        C967   1.406       .  A
C966        H971   1.086       .  S
C967        C968   1.413       .  A
C968       Br969   1.925       .  S
C973        C974   1.401       .  A
C973        C978   1.397       .  A
C973        H980   1.083       .  S
C974        C975   1.416       .  A
C975        C976   1.395       .  A
C975       Br982   1.925       .  S
C976        C977   1.403       .  A
C976        H981   1.076       .  S
C977        C978   1.422       .  A
C978       Br979   1.926       .  S
C983        C984   1.399       .  A
C983        C988   1.398       .  A
C983        H990   1.083       .  S
C984        C985   1.406       .  A
C985        C986   1.399       .  A
C985       Br992   1.918       .  S
C986        C987   1.410       .  A
C986        H991   1.083       .  S
C987        C988   1.421       .  A
C988       Br989   1.924       .  S
C993        C994   1.402       .  A
C993        C998   1.402       .  A
C993       H1000   1.083       .  S
C994        C995   1.409       .  A
C995        C996   1.404       .  A
C995      Br1002   1.918       .  S
C996        C997   1.412       .  A
C996       H1001   1.083       .  S
C997        C998   1.421       .  A
C998       Br999   1.923       .  S
C1003      C1004   1.411       .  A
C1003      C1008   1.402       .  A
C1003      H1010   1.083       .  S
C1005      C1006   1.401       .  A
C1005     Br1012   1.924       .  S
C1006      H1011   1.083       .  S
C1007      C1008   1.406       .  A
C1008     Br1009   1.917       .  S
C1013      C1014   1.406       .  A
C1013      C1018   1.398       .  A
C1013      H1020   1.083       .  S
C1014      C1015   1.414       .  A
C1015      C1016   1.405       .  A
C1015     Br1022   1.916       .  S
C1016      C1017   1.401       .  A
C1016      H1021   1.083       .  S
C1017      C1018   1.405       .  A
C1018     Br1019   1.917       .  S
C1023      C1024   1.400       .  A
C1023      C1028   1.403       .  A
C1023      H1030   1.084       .  S
C1024      C1025   1.398       .  A
C1025      C1026   1.395       .  A
C1025     Br1032   1.919       .  S
C1026      C1027   1.415       .  A
C1026      H1031   1.080       .  S
C1027      C1028   1.422       .  A
C1028     Br1029   1.924       .  S
C1033      C1034   1.400       .  A
C1033      C1038   1.397       .  A
C1033      H1040   1.084       .  S
C1034      C1035   1.412       .  A
C1035      C1036   1.396       .  A
C1035     Br1042   1.923       .  S
C1036      C1037   1.403       .  A
C1036      H1041   1.072       .  S
C1037      C1038   1.424       .  A
C1038     Br1039   1.926       .  S
C1043      C1044   1.410       .  A
C1043      C1048   1.397       .  A
C1043      H1050   1.083       .  S
C1044      C1045   1.419       .  A
C1045      C1046   1.397       .  A
C1045     Br1052   1.924       .  S
C1046      C1047   1.402       .  A
C1046      H1051   1.083       .  S
C1047      C1048   1.408       .  A
C1048     Br1049   1.919       .  S
C1053      C1054   1.408       .  A
C1053      C1058   1.397       .  A
C1053      H1060   1.083       .  S
C1054      C1055   1.418       .  A
C1055      C1056   1.397       .  A
C1055     Br1062   1.921       .  S
C1056      C1057   1.397       .  A
C1056      H1061   1.083       .  S
C1057      C1058   1.408       .  A
C1058     Br1059   1.921       .  S
C1063      C1064   1.399       .  A
C1063      C1068   1.402       .  A
C1063      H1070   1.084       .  S
C1064      C1065   1.399       .  A
C1065      C1066   1.395       .  A
C1065     Br1072   1.919       .  S
C1066      C1067   1.416       .  A
C1066      H1071   1.080       .  S
C1067      C1068   1.423       .  A
C1068     Br1069   1.924       .  S
C1073      C1074   1.397       .  A
C1073      C1078   1.399       .  A
C1073      H1080   1.084       .  S
C1074      C1075   1.399       .  A
C1075      C1076   1.396       .  A
C1075     Br1082   1.920       .  S
C1076      C1077   1.416       .  A
C1076      H1081   1.081       .  S
C1077      C1078   1.422       .  A
C1078     Br1079   1.922       .  S
C1083      C1084   1.399       .  A
C1083      C1088   1.398       .  A
C1083      H1090   1.083       .  S
C1084      C1085   1.403       .  A
C1085      C1086   1.400       .  A
C1085     Br1092   1.918       .  S
C1086      C1087   1.412       .  A
C1086      H1091   1.083       .  S
C1087      C1088   1.420       .  A
C1088     Br1089   1.923       .  S
C1093      C1098   1.402       .  A
C1093      H1100   1.083       .  S
C1094      C1479   1.412       .  A
C1095      C1478   1.412       .  A
C1095      C1096   1.396       .  A
C1095     Br1102   1.918       .  S
C1096      C1097   1.408       .  A
C1096      H1101   1.083       .  S
C1098     Br1099   1.922       .  S
C1103      C1104   1.399       .  A
C1103      C1108   1.401       .  A
C1103      H1110   1.083       .  S
C1104      C1105   1.403       .  A
C1105      C1106   1.401       .  A
C1105     Br1112   1.915       .  S
C1106      C1107   1.409       .  A
C1106      H1111   1.083       .  S
C1107      C1108   1.420       .  A
C1108     Br1109   1.923       .  S
C1113      C1114   1.400       .  A
C1113      C1118   1.397       .  A
C1113      H1120   1.083       .  S
C1114      C1115   1.415       .  A
C1115      C1116   1.399       .  A
C1115     Br1122   1.923       .  S
C1116      C1117   1.404       .  A
C1116      H1121   1.077       .  S
C1117      C1118   1.423       .  A
C1118     Br1119   1.926       .  S
C1123      C1124   1.398       .  A
C1123      C1128   1.402       .  A
C1123      H1130   1.084       .  S
C1124      C1125   1.398       .  A
C1125      C1126   1.397       .  A
C1125     Br1132   1.919       .  S
C1126      C1127   1.414       .  A
C1126      H1131   1.080       .  S
C1127      C1128   1.424       .  A
C1128     Br1129   1.922       .  S
C1133      C1134   1.408       .  A
C1133      C1138   1.397       .  A
C1133      H1140   1.083       .  S
C1134      C1135   1.421       .  A
C1135      C1136   1.400       .  A
C1135     Br1142   1.924       .  S
C1136      C1137   1.401       .  A
C1136      H1141   1.083       .  S
C1137      C1138   1.409       .  A
C1138     Br1139   1.920       .  S
C1143      C1144   1.399       .  A
C1143      C1148   1.401       .  A
C1143      H1150   1.083       .  S
C1144      C1145   1.406       .  A
C1145      C1146   1.399       .  A
C1145     Br1152   1.918       .  S
C1146      C1147   1.406       .  A
C1146      H1151   1.083       .  S
C1147      C1148   1.413       .  A
C1148     Br1149   1.919       .  S
O1153      C1169   1.276       .  A
O1153     Zn1159   2.034       .  S
C1154      O1170   1.277       .  A
C1154      O1167   1.270       .  A
C1154      C1518   1.491       .  S
O1155      C1168   1.277       .  A
O1155     Cd1162   2.090       .  S
O1156      C1174   1.272       .  A
O1156     Cd1165   2.053       .  S
O1157      C1171   1.275       .  A
O1157     Cd1161   2.081       .  S
O1158      C1169   1.273       .  A
O1158     Cd1161   2.059       .  S
Zn1159     O1170   2.028       .  S
Zn1159     O1172   2.045       .  S
Zn1159     O1164   1.953       .  S
O1160      C1171   1.271       .  A
O1160     Cd1165   2.063       .  S
Cd1161     O1163   2.072       .  S
Cd1161     O1164   2.002       .  S
Cd1162     O1166   2.083       .  S
Cd1162     O1175   2.090       .  S
Cd1162     O1164   2.008       .  S
O1163      C1173   1.276       .  A
O1164     Cd1165   1.995       .  S
Cd1165     O1167   2.057       .  S
O1166      C1173   1.277       .  A
C1168      O1172   1.278       .  A
C1168      C1329   1.481       .  S
C1169      C1508   1.467       .  S
C1171      C1491   1.490       .  S
C1173      C1531   1.481       .  S
C1174      O1175   1.279       .  A
C1174      C1498   1.485       .  S
C1176      C1179   1.543       .  S
C1176      C1511   1.538       .  S
C1177      C1182   1.553       .  S
C1177      C1501   1.533       .  S
C1178      C1186   1.387       .  A
C1178      C1181   1.399   1_565  A
C1179      C1190   1.381       .  A
C1180      C1194   1.386       .  A
C1180      C1183   1.397       .  A
C1181      C1184   1.377   1_545  A
C1182      C1188   1.384       .  A
C1183      C1191   1.378       .  A
C1184      N1185   1.349       .  A
C1184      H1197   1.083   1_565  S
N1185      C1186   1.355       .  A
N1185      C1521   1.438       .  S
C1186      H1187   1.082       .  S
C1188      H1198   1.080       .  S
N1189      C1190   1.356   1_545  A
N1189      C1478   1.445   1_545  S
C1190      H1196   1.082       .  S
C1191      N1192   1.349       .  A
C1191      H1193   1.083       .  S
N1192      C1194   1.352       .  A
N1192      C1528   1.432       .  S
C1194      H1195   1.081       .  S
O1199      C1215   1.271       .  A
O1199     Zn1205   2.008       .  S
C1200      O1216   1.274       .  A
C1200      O1213   1.274       .  A
C1200      C1448   1.467       .  S
O1201     Cd1208   2.074       .  S
O1202      C1220   1.274       .  A
O1203      C1217   1.274       .  A
O1203     Cd1207   2.055       .  S
O1204      C1215   1.274       .  A
O1204     Cd1207   2.064       .  S
Zn1205     O1218   2.027       .  S
Zn1205     O1210   1.940       .  S
O1206     Cd1211   2.083       .  S
Cd1207     O1210   1.997       .  S
Cd1208     O1212   2.069       .  S
O1209      C1219   1.272       .  A
Cd1211     O1213   2.074       .  S
O1212      C1219   1.273       .  A
C1214      O1218   1.275   1_554  A
C1215      C1438   1.485       .  S
C1217      C1481   1.493       .  S
C1219      C1458   1.464       .  S
C1220      O1221   1.277       .  A
C1220      C1471   1.492       .  S
C1222      C1224   1.536       .  S
C1222      C1226   1.540       .  S
C1222      C1225   1.546       .  S
C1222      C1451   1.539       .  S
C1223      C1227   1.538       .  S
C1223      C1229   1.535       .  S
C1223      C1228   1.546       .  S
C1223      C1461   1.536       .  S
C1224      C1232   1.382       .  A
C1224      C1227   1.398       .  A
C1225      C1236   1.380       .  A
C1225      C1228   1.399       .  A
C1226      C1240   1.380       .  A
C1226      C1229   1.403       .  A
C1227      C1230   1.380       .  A
C1228      C1234   1.381       .  A
C1229      C1237   1.382       .  A
C1230      N1231   1.351       .  A
C1230      H1243   1.083       .  S
N1231      C1232   1.353       .  A
N1231      C1468   1.434       .  S
C1232      H1233   1.081       .  S
C1234      N1235   1.356       .  A
C1234      H1244   1.082       .  S
N1235      C1236   1.355       .  A
N1235      C1488   1.434       .  S
C1236      H1242   1.082       .  S
C1237      N1238   1.350       .  A
C1237      H1239   1.082       .  S
N1238      C1240   1.348       .  A
N1238      C1441   1.432       .  S
C1240      H1241   1.082       .  S
O1245      C1261   1.275       .  A
C1246      O1262   1.274       .  A
C1246      O1259   1.271       .  A
C1246      C1428   1.490       .  S
O1247      C1260   1.276       .  A
O1247     Cd1254   2.080       .  S
O1248      C1266   1.271       .  A
O1248     Cd1257   2.049       .  S
O1249     Cd1253   2.090       .  S
O1250      C1261   1.275       .  A
Zn1251     O1262   2.013   1_455  S
Zn1251     O1264   2.030   1_455  S
O1252      C1263   1.271   1_655  A
O1252     Cd1257   2.065       .  S
Cd1253     O1255   2.079       .  S
Cd1254     O1267   2.081       .  S
Cd1254     O1256   2.008   1_655  S
O1255      C1265   1.278       .  A
O1256     Cd1257   1.993   1_455  S
O1258      C1265   1.277       .  A
C1261      C1408   1.468       .  S
C1263      C1388   1.498       .  S
C1265      C1398   1.486       .  S
C1266      O1267   1.277       .  A
C1266      C1418   1.479       .  S
C1268      C1270   1.550       .  S
C1268      C1272   1.535       .  S
C1268      C1271   1.545       .  S
C1268      C1411   1.537       .  S
C1269      C1273   1.534       .  S
C1269      C1275   1.528       .  S
C1269      C1274   1.558       .  S
C1269      C1421   1.531       .  S
C1270      C1278   1.386       .  A
C1270      C1273   1.405       .  A
C1271      C1282   1.380       .  A
C1271      C1274   1.400       .  A
C1272      C1286   1.383       .  A
C1272      C1275   1.387       .  A
C1273      C1276   1.381       .  A
C1274      C1280   1.389       .  A
C1275      C1283   1.378       .  A
C1276      N1277   1.349       .  A
C1276      H1289   1.083       .  S
N1277      C1278   1.353       .  A
N1277      C1431   1.438       .  S
C1278      H1279   1.082       .  S
C1280      N1281   1.359       .  A
C1280      H1290   1.078       .  S
N1281      C1282   1.357       .  A
N1281      C1378   1.445       .  S
C1282      H1288   1.082       .  S
C1283      N1284   1.354       .  A
C1283      H1285   1.083       .  S
N1284      C1286   1.356       .  A
N1284      C1401   1.435       .  S
C1286      H1287   1.082       .  S
C1291      C1293   1.528       .  S
C1291      C1294   1.554       .  S
C1291      C1361   1.530       .  S
C1292      C1348   1.534       .  S
C1294      C1305   1.384       .  A
C1295      C1309   1.385       .  A
C1295      C1298   1.408       .  A
C1296      C1299   1.380   1_455  A
C1298      C1306   1.386       .  A
C1299      N1300   1.357       .  A
C1299      H1312   1.081   1_655  S
N1300      C1301   1.354       .  A
N1300      C1368   1.437       .  S
C1303      H1313   1.081       .  S
N1304      C1305   1.358   1_455  A
N1304      C1391   1.440       .  S
C1305      H1311   1.081       .  S
C1306      N1307   1.348       .  A
C1306      H1308   1.081       .  S
N1307      C1309   1.350       .  A
N1307      C1341   1.433       .  S
C1309      H1310   1.080       .  S
O1314      C1330   1.276       .  A
O1314     Zn1320   2.036       .  S
C1315      O1331   1.279       .  A
C1315      O1328   1.270       .  A
C1315      C1358   1.484       .  S
O1316      C1329   1.276       .  A
O1316     Cd1323   2.083       .  S
O1317      C1335   1.271       .  A
O1317     Cd1326   2.059       .  S
O1318      C1332   1.273       .  A
O1318     Cd1322   2.080       .  S
O1319      C1330   1.273       .  A
O1319     Cd1322   2.061       .  S
Zn1320     O1331   2.041       .  S
Zn1320     O1333   2.052       .  S
Zn1320     O1325   1.960       .  S
O1321      C1332   1.275       .  A
O1321     Cd1326   2.083       .  S
Cd1322     O1324   2.057       .  S
Cd1322     O1325   1.996       .  S
Cd1323     O1327   2.073       .  S
Cd1323     O1336   2.081       .  S
Cd1323     O1325   2.002       .  S
O1324      C1334   1.275       .  A
O1325     Cd1326   1.993       .  S
Cd1326     O1328   2.039       .  S
O1327      C1334   1.274       .  A
C1329      O1333   1.278       .  A
C1330      C1338   1.471       .  S
C1332      C1381   1.501       .  S
C1334      C1351   1.489       .  S
C1335      O1336   1.277       .  A
C1335      C1371   1.493       .  S
C1337      C1338   1.403       .  A
C1337      C1342   1.400       .  A
C1337      H1344   1.082       .  S
C1338      C1339   1.409       .  A
C1339      C1340   1.401       .  A
C1339     Br1346   1.920       .  S
C1340      C1341   1.403       .  A
C1340      H1345   1.082       .  S
C1341      C1342   1.405       .  A
C1342     Br1343   1.916       .  S
C1347      C1348   1.411       .  A
C1347      C1352   1.396       .  A
C1347      H1354   1.081       .  S
C1348      C1349   1.419       .  A
C1349      C1350   1.397       .  A
C1349     Br1356   1.925       .  S
C1350      C1351   1.406       .  A
C1350      H1355   1.086       .  S
C1351      C1352   1.413       .  A
C1352     Br1353   1.925       .  S
C1357      C1358   1.401       .  A
C1357      C1362   1.398       .  A
C1357      H1364   1.083       .  S
C1358      C1359   1.416       .  A
C1359      C1360   1.395       .  A
C1359     Br1366   1.925       .  S
C1360      C1361   1.403       .  A
C1360      H1365   1.075       .  S
C1361      C1362   1.423       .  A
C1362     Br1363   1.926       .  S
C1367      C1368   1.399       .  A
C1367      C1372   1.398       .  A
C1367      H1374   1.083       .  S
C1368      C1369   1.406       .  A
C1369      C1370   1.399       .  A
C1369     Br1376   1.918       .  S
C1370      C1371   1.410       .  A
C1370      H1375   1.083       .  S
C1371      C1372   1.421       .  A
C1372     Br1373   1.924       .  S
C1377      C1378   1.402       .  A
C1377      C1382   1.402       .  A
C1377      H1384   1.083       .  S
C1378      C1379   1.409       .  A
C1379      C1380   1.404       .  A
C1379     Br1386   1.918       .  S
C1380      C1381   1.412       .  A
C1380      H1385   1.083       .  S
C1381      C1382   1.421       .  A
C1382     Br1383   1.923       .  S
C1387      C1388   1.411       .  A
C1387      C1392   1.402       .  A
C1387      H1394   1.083       .  S
C1389      C1390   1.401       .  A
C1389     Br1396   1.924   1_545  S
C1390      H1395   1.083       .  S
C1391      C1392   1.407       .  A
C1392     Br1393   1.917       .  S
C1397      C1398   1.406       .  A
C1397      C1402   1.398       .  A
C1397      H1404   1.083       .  S
C1398      C1399   1.415       .  A
C1399      C1400   1.404       .  A
C1399     Br1406   1.915       .  S
C1400      C1401   1.401       .  A
C1400      H1405   1.083       .  S
C1401      C1402   1.405       .  A
C1402     Br1403   1.917       .  S
C1407      C1408   1.400       .  A
C1407      C1412   1.403       .  A
C1407      H1414   1.084       .  S
C1408      C1409   1.398       .  A
C1409      C1410   1.395       .  A
C1409     Br1416   1.919       .  S
C1410      C1411   1.414       .  A
C1410      H1415   1.080       .  S
C1411      C1412   1.422       .  A
C1412     Br1413   1.924       .  S
C1417      C1418   1.400       .  A
C1417      C1422   1.397       .  A
C1417      H1424   1.084       .  S
C1418      C1419   1.412       .  A
C1419      C1420   1.396       .  A
C1419     Br1426   1.923       .  S
C1420      C1421   1.403       .  A
C1420      H1425   1.072       .  S
C1421      C1422   1.424       .  A
C1422     Br1423   1.926       .  S
C1427      C1428   1.410       .  A
C1427      C1432   1.397       .  A
C1427      H1434   1.083       .  S
C1428      C1429   1.419       .  A
C1429      C1430   1.398       .  A
C1429     Br1436   1.924       .  S
C1430      C1431   1.402       .  A
C1430      H1435   1.083       .  S
C1431      C1432   1.408       .  A
C1432     Br1433   1.919       .  S
C1437      C1438   1.408       .  A
C1437      C1442   1.397       .  A
C1437      H1444   1.083       .  S
C1438      C1439   1.418       .  A
C1439      C1440   1.397       .  A
C1439     Br1446   1.921       .  S
C1440      C1441   1.397       .  A
C1440      H1445   1.083       .  S
C1441      C1442   1.408       .  A
C1442     Br1443   1.921       .  S
C1447      C1448   1.398       .  A
C1447      C1452   1.401       .  A
C1447      H1454   1.084       .  S
C1448      C1449   1.399       .  A
C1449      C1450   1.395       .  A
C1449     Br1456   1.919       .  S
C1450      C1451   1.416       .  A
C1450      H1455   1.080       .  S
C1451      C1452   1.423       .  A
C1452     Br1453   1.924       .  S
C1457      C1458   1.397       .  A
C1457      C1462   1.399       .  A
C1457      H1464   1.084       .  S
C1458      C1459   1.399       .  A
C1459      C1460   1.396       .  A
C1459     Br1466   1.920       .  S
C1460      C1461   1.416       .  A
C1460      H1465   1.081       .  S
C1461      C1462   1.422       .  A
C1462     Br1463   1.922       .  S
C1467      C1468   1.399       .  A
C1467      C1472   1.398       .  A
C1467      H1474   1.083       .  S
C1468      C1469   1.403       .  A
C1469      C1470   1.400       .  A
C1469     Br1476   1.918       .  S
C1470      C1471   1.411       .  A
C1470      H1475   1.083       .  S
C1471      C1472   1.420       .  A
C1472     Br1473   1.923       .  S
C1477      C1482   1.402       .  A
C1477      H1484   1.083       .  S
C1479      C1480   1.396       .  A
C1479     Br1486   1.918       .  S
C1480      C1481   1.408       .  A
C1480      H1485   1.083       .  S
C1482     Br1483   1.922       .  S
C1487      C1488   1.399       .  A
C1487      C1492   1.401       .  A
C1487      H1494   1.083       .  S
C1488      C1489   1.403       .  A
C1489      C1490   1.400       .  A
C1489     Br1496   1.915       .  S
C1490      C1491   1.409       .  A
C1490      H1495   1.083       .  S
C1491      C1492   1.420       .  A
C1492     Br1493   1.923       .  S
C1497      C1498   1.400       .  A
C1497      C1502   1.397       .  A
C1497      H1504   1.083       .  S
C1498      C1499   1.415       .  A
C1499      C1500   1.399       .  A
C1499     Br1506   1.923       .  S
C1500      C1501   1.405       .  A
C1500      H1505   1.076       .  S
C1501      C1502   1.423       .  A
C1502     Br1503   1.926       .  S
C1507      C1508   1.399       .  A
C1507      C1512   1.402       .  A
C1507      H1514   1.084       .  S
C1508      C1509   1.398       .  A
C1509      C1510   1.396       .  A
C1509     Br1516   1.919       .  S
C1510      C1511   1.414       .  A
C1510      H1515   1.080       .  S
C1511      C1512   1.424       .  A
C1512     Br1513   1.923       .  S
C1517      C1518   1.408       .  A
C1517      C1522   1.396       .  A
C1517      H1524   1.083       .  S
C1518      C1519   1.421       .  A
C1519      C1520   1.400       .  A
C1519     Br1526   1.924       .  S
C1520      C1521   1.401       .  A
C1520      H1525   1.083       .  S
C1521      C1522   1.408       .  A
C1522     Br1523   1.920       .  S
C1527      C1528   1.399       .  A
C1527      C1532   1.401       .  A
C1527      H1534   1.083       .  S
C1528      C1529   1.406       .  A
C1529      C1530   1.399       .  A
C1529     Br1536   1.918       .  S
C1530      C1531   1.406       .  A
C1530      H1535   1.083       .  S
C1531      C1532   1.413       .  A
C1532     Br1533   1.919       .  S
