geometry optimzed in LAMMPS
_audit_creation_date              2020-11-30 
_audit_creation_method            'lammps2cif' 
_symmetry_space_group_name_H-M    'P1' 
_symmetry_Int_Tables_number       1 
_symmetry_cell_setting            triclinic 
loop_ 
_symmetry_equiv_pos_as_xyz 
  x,y,z 
_cell_length_a                    35.26983151 
_cell_length_b                    35.28775199335911 
_cell_length_c                    30.032854362250344 
_cell_angle_alpha                 89.95212774887787 
_cell_angle_beta                  89.98451827430658 
_cell_angle_gamma                 119.76230740652547 
loop_ 
_atom_site_label 
_atom_site_type_symbol 
_atom_site_fract_x 
_atom_site_fract_y 
_atom_site_fract_z 
_atom_site_charge 
N1          N  0.05274303  0.23341283  0.53764760    -0.03100
C2          C  0.04084212  0.25186898  0.57175764    -0.00500
C3          C  0.07647168  0.27433282  0.59956453    -0.23300
C4          C  0.11072456  0.27316939  0.58202473    -0.23600
C5          C  0.09535511  0.24538879  0.54645685    -0.00600
H6          H  0.07867222  0.29288369  0.62893578     0.13200
H7          H  0.14334023  0.28901055  0.59586864     0.13300
N8          N  0.43820168  0.28299821  0.42516587    -0.03100
C9          C  0.45031611  0.26300794  0.39277562    -0.00500
C10         C  0.41469342  0.23819550  0.36590456    -0.23300
C11         C  0.38015273  0.23881252  0.38246924    -0.23600
C12         C  0.39506973  0.26965522  0.41548994    -0.00600
H13         H  0.41281352  0.21899281  0.33728696     0.13200
H14         H  0.34874566  0.22319054  0.36647706     0.13300
O15         O  0.06543835  0.34849833  0.56650497    -0.81400
C16         C  0.41561442  0.34930911  0.55365870     0.98000
O17         O  0.43809546  0.35329313  0.51907277    -0.70500
O18         O  0.00220272  0.41059500  0.56733779    -0.74100
Al19       Al  0.99867347  0.37065459  0.52411237     1.49000
C20         C  0.03623604  0.43129923  0.59012079     0.93200
O21         O  0.98575702  0.33957025  0.65672868    -0.80300
O22         O  0.47114922  0.25191174  0.55567020    -0.73900
Al23       Al  0.02564139  0.34481086  0.60945802     1.90100
O24         O  0.43565167  0.27546733  0.63146641    -0.72900
O25         O  0.42894102  0.28027841  0.50258521    -0.69200
O26         O  0.40685846  0.31717754  0.57926660    -0.78400
O27         O  0.49280956  0.33044259  0.47647313    -0.76600
O28         O  0.48769857  0.33307070  0.56682729    -1.12800
O29         O  0.06406486  0.39716073  0.52358221    -0.72000
C30         C  0.08584930  0.38263797  0.54389856     0.98700
C31         C  0.45277980  0.30224378  0.66371634     0.95100
Al32       Al  0.43784937  0.28335192  0.56726272     1.55600
O33         O  0.05135498  0.40986889  0.60993998    -0.76600
C34         C  0.45513568  0.29750546  0.46976121     0.99300
C35         C  0.00378570  0.26080245  0.58061300     0.94200
O36         O  0.00923695  0.28438173  0.61472103    -0.81900
N37         N  0.10680238  0.11752283  0.08640785    -0.03100
C38         C  0.11978915  0.09965145  0.05266316    -0.00500
C39         C  0.08430718  0.07559721  0.02541647    -0.23300
C40         C  0.04945641  0.07552732  0.04248309    -0.23600
C41         C  0.06379969  0.10414601  0.07731567    -0.00600
H42         H  0.08270314  0.05698779  0.99655165     0.13200
H43         H  0.01791458  0.06001822  0.02688626     0.13300
N44         N  0.22582239  0.07651603  0.19693252    -0.03100
C45         C  0.20804224  0.08652960  0.23328484    -0.00500
C46         C  0.23970852  0.10500337  0.26583832    -0.23300
C47         C  0.27734584  0.11095377  0.24957058    -0.23600
C48         C  0.26799717  0.08896867  0.20989913    -0.00600
H49         H  0.23714929  0.11729022  0.29775135     0.13200
H50         H  0.30715956  0.12447108  0.26869396     0.13300
O51         O  0.22694629  0.50653064  0.10501661    -0.81400
C52         C  0.15845693  0.09341103  0.04273422     0.98000
O53         O  0.19252941  0.10470921  0.06638889    -0.70500
O54         O  0.23861090  0.07982641  0.11949712    -0.74100
Al55       Al  0.22709061  0.07428103  0.05496198     1.49000
C56         C  0.21101373  0.06434070  0.15108172     0.93200
O57         O  0.10185968  0.46057770  0.10221782    -0.80300
O58         O  0.11291584  0.44484211  0.01547695    -0.73900
Al59       Al  0.16692449  0.48917226  0.09854040     1.90100
O60         O  0.09579419  0.50447069  0.05664194    -0.72900
O61         O  0.17824838  0.01610342  0.96736256    -0.72800
O62         O  0.15341231  0.06995420  0.00859975    -0.78400
O63         O  0.22789379  0.08088758  0.99209020    -0.76600
O64         O  0.17698553  0.02391098  0.05540862    -1.12800
O65         O  0.25868505  0.04010178  0.04435896    -0.72000
C66         C  0.24966663  0.00899387  0.07184600     0.98700
C67         C  0.07778283  0.47247378  0.08304520     0.95100
Al68       Al  0.13781266  0.00994749  0.01417773     1.55600
O69         O  0.17282237  0.03414406  0.14176935    -0.76600
C70         C  0.21084347  0.05380465  0.96043114     0.99300
C71         C  0.12692628  0.42372467  0.03777629     0.94200
O72         O  0.16202969  0.44533237  0.05891378    -0.81900
O73         O  0.23140477  0.18149242  0.22657254    -0.81400
C74         C  0.08153384  0.18250379  0.21377778     0.98000
O75         O  0.10508499  0.18799904  0.17957855    -0.70500
O76         O  0.16941505  0.24486549  0.22711386    -0.74100
Al77       Al  0.16564039  0.20471488  0.18463784     1.49000
C78         C  0.20337772  0.26518330  0.24998976     0.93200
O79         O  0.15151089  0.17200210  0.31788638    -0.80300
O80         O  0.13832439  0.08609114  0.21532836    -0.73900
Al81       Al  0.19167354  0.17805378  0.27001117     1.90100
O82         O  0.10146947  0.10805628  0.29198119    -0.72900
O83         O  0.09640691  0.11459400  0.16314635    -0.72800
O84         O  0.07276431  0.14996063  0.23883503    -0.78400
O85         O  0.16050469  0.16470031  0.13769990    -0.76600
O86         O  0.15398918  0.16691487  0.22750380    -1.12800
O87         O  0.23078793  0.23068105  0.18400539    -0.72000
C88         C  0.25218634  0.21551995  0.20380378     0.98700
C89         C  0.11873407  0.13422174  0.32474612     0.95100
Al90       Al  0.10438359  0.11691073  0.22729672     1.55600
O91         O  0.21787160  0.24338084  0.27034365    -0.76600
C92         C  0.12319174  0.13170833  0.13084126     0.99300
C93         C  0.17047347  0.09489691  0.24087806     0.94200
O94         O  0.17468336  0.11767622  0.27524160    -0.81900
N95         N  0.10441234  0.11719585  0.36939108    -0.03100
C96         C  0.09114531  0.07409526  0.37909300    -0.00500
C97         C  0.06054790  0.05918372  0.41243731    -0.23300
C98         C  0.05988684  0.09366547  0.42901723    -0.23600
C99         C  0.08453775  0.12925053  0.40196317    -0.00600
H100        H  0.04491946  0.02772686  0.42838600     0.13200
H101        H  0.04064410  0.09172791  0.45766434     0.13300
N102        N  0.05386555  0.23111190  0.25673125    -0.03100
C103        C  0.06579898  0.27370517  0.24797412    -0.00500
C104        C  0.09379340  0.28927038  0.21254542    -0.23300
C105        C  0.09509865  0.25516888  0.19495104    -0.23600
C106        C  0.07252126  0.21943917  0.22264166    -0.00600
H107        H  0.10979387  0.32197819  0.19891098     0.13200
H108        H  0.11391315  0.25756780  0.16571333     0.13300
O109        O  0.48343459  0.23220642  0.34992109    -0.81400
C110        C  0.07686160  0.16710842  0.41061308     0.98000
O111        O  0.08584203  0.19961767  0.38550639    -0.70500
O112        O  0.05683706  0.24081224  0.33333121    -0.74100
Al113      Al  0.05425486  0.23293619  0.39720859     1.49000
C114        C  0.03967294  0.21422418  0.30101371     0.93200
O115        O  0.44015963  0.10708861  0.35381012    -0.80300
O116        O  0.42837754  0.11898140  0.44138334    -0.73900
Al117      Al  0.46629561  0.17171778  0.35513564     1.90100
O118        O  0.48853161  0.10452785  0.39635996    -0.72900
O119        O  0.99867350  0.18530381  0.48707198    -0.72800
O120        O  0.05362745  0.16226561  0.44477422    -0.78400
O121        O  0.06235940  0.23574729  0.46103452    -0.76600
O122        O  0.50429031  0.18297856  0.39737919    -1.12800
O123        O  0.02092284  0.26454958  0.40895168    -0.72000
C124        C  0.48830742  0.25548309  0.38400011     0.98700
C125        C  0.45466048  0.08482218  0.37282900     0.95100
Al126      Al  0.49309533  0.14513634  0.43982824     1.55600
O127        O  0.50623768  0.17710143  0.30770189    -0.76600
C128        C  0.03580714  0.21881270  0.49348128     0.99300
C129        C  0.40611230  0.13345323  0.42228838     0.94200
O130        O  0.42590683  0.16736221  0.39882343    -0.81900
N131        N  0.27508778  0.45638805  0.03666173    -0.03100
C132        C  0.25596133  0.46995483  0.06766554    -0.00500
C133        C  0.23103504  0.43528806  0.09599914    -0.23300
C134        C  0.23194049  0.40004186  0.08146036    -0.23600
C135        C  0.26142506  0.41344870  0.04715061    -0.00600
H136        H  0.21163555  0.43426065  0.12404453     0.13200
H137        H  0.21612910  0.36886614  0.09808554     0.13300
N138        N  0.22514129  0.07021402  0.91646829    -0.03100
C139        C  0.24433391  0.05754254  0.88439794    -0.00500
C140        C  0.26798757  0.09240426  0.85620198    -0.23300
C141        C  0.26640646  0.12697025  0.87143569    -0.23600
C142        C  0.23818065  0.11290440  0.90666319    -0.00600
H143        H  0.28800547  0.09394725  0.82869345     0.13200
H144        H  0.28230125  0.15854371  0.85590012     0.13300
O145        O  0.40428473  0.02123640  0.90031688    -0.81400
C146        C  0.25363496  0.02069317  0.87930560     0.98000
O147        O  0.27816196  0.02552025  0.84646622    -0.70500
O148        O  0.34148964  0.08379193  0.89509577    -0.74100
Al149      Al  0.33810587  0.04233493  0.85384868     1.49000
C150        C  0.37434428  0.10402923  0.91971949     0.93200
O151        O  0.32088003  0.01152245  0.98622503    -0.80300
O152        O  0.30965930  0.42404212  0.88824700    -0.73900
Al153      Al  0.36239928  0.01737385  0.94116944     1.90100
O154        O  0.27188205  0.44703808  0.96047695    -0.72900
O155        O  0.26805576  0.45193011  0.83381521    -0.72800
O156        O  0.24431633  0.48902726  0.90596508    -0.78400
O157        O  0.33268771  0.00123133  0.80844294    -0.76600
O158        O  0.32569827  0.00527647  0.89737558    -1.12800
O159        O  0.40291406  0.06807239  0.85452301    -0.72000
C160        C  0.42459589  0.05411004  0.87572037     0.98700
C161        C  0.28894899  0.47333105  0.99275653     0.95100
Al162      Al  0.27576331  0.45531281  0.89714456     1.55600
O163        O  0.38813477  0.08221239  0.94094954    -0.76600
C164        C  0.29462756  0.46911073  0.80171246     0.99300
C165        C  0.34116869  0.43316025  0.91502249     0.94200
O166        O  0.34564651  0.45732334  0.94807415    -0.81900
N167        N  0.43860905  0.28583690  0.70821421    -0.03100
C168        C  0.42092884  0.29884785  0.74214979    -0.00500
C169        C  0.39698122  0.26341221  0.76958148    -0.23300
C170        C  0.39679538  0.22856978  0.75245258    -0.23600
C171        C  0.42521309  0.24285902  0.71737053    -0.00600
H172        H  0.37849523  0.26182137  0.79860464     0.13200
H173        H  0.38124080  0.19702204  0.76804128     0.13300
N174        N  0.39765415  0.40486142  0.59790686    -0.03100
C175        C  0.40792968  0.38728156  0.56159020    -0.00500
C176        C  0.42683890  0.41919706  0.52927731    -0.23300
C177        C  0.43264446  0.45672334  0.54565567    -0.23600
C178        C  0.41019422  0.44708462  0.58511804    -0.00600
H179        H  0.43926514  0.41679939  0.49736818     0.13200
H180        H  0.44615068  0.48655866  0.52654654     0.13300
N181        N  0.27800733  0.45506712  0.75775306    -0.03100
C182        C  0.23507904  0.44138779  0.74710560    -0.00500
C183        C  0.22163453  0.41174359  0.71306643    -0.23300
C184        C  0.25674700  0.41039733  0.69893303    -0.23600
C185        C  0.29144493  0.43543742  0.72714642    -0.00600
H186        H  0.19039707  0.39574567  0.69661030     0.13200
H187        H  0.25554235  0.39058115  0.67125779     0.13300
N188        N  0.39093068  0.40446807  0.87821879    -0.03100
C189        C  0.43364315  0.41756821  0.88813469    -0.00500
C190        C  0.44775548  0.44627841  0.92290164    -0.23300
C191        C  0.41317680  0.44811024  0.93779354    -0.23600
C192        C  0.37828875  0.42416011  0.90981051    -0.00600
H193        H  0.47933160  0.46226266  0.93845125     0.13200
H194        H  0.41466874  0.46836016  0.96499332     0.13300
O195        O  0.32786013  0.40621019  0.68979947    -0.81400
C196        C  0.41455944  0.33740261  0.75201033     0.98000
O197        O  0.42588767  0.37147654  0.72835059    -0.70500
O198        O  0.40112370  0.41756441  0.67529590    -0.74100
Al199      Al  0.39549186  0.40605166  0.73979516     1.49000
C200        C  0.38551356  0.39001724  0.64374631     0.93200
O201        O  0.28143546  0.28107338  0.69254745    -0.80300
O202        O  0.26585623  0.29186003  0.77917777    -0.73900
Al203      Al  0.31024243  0.34612377  0.69626021     1.90100
O204        O  0.32565813  0.27497629  0.73759297    -0.72900
O205        O  0.33709846  0.35695178  0.82745860    -0.72800
O206        O  0.39099622  0.33228251  0.78610515    -0.78400
O207        O  0.40190841  0.40674168  0.80266323    -0.76600
O208        O  0.34500594  0.35604316  0.73935706    -1.12800
O209        O  0.36148295  0.43782140  0.75040863    -0.72000
C210        C  0.33039798  0.42894074  0.72297233     0.98700
C211        C  0.29337972  0.25695831  0.71155467     0.95100
Al212      Al  0.33100024  0.31671599  0.78043865     1.55600
O213        O  0.35518960  0.35190759  0.65307778    -0.76600
C214        C  0.37470136  0.38975079  0.83430575     0.99300
C215        C  0.24468459  0.30593265  0.75704847     0.94200
O216        O  0.26629181  0.34115373  0.73599060    -0.81900
N217        N  0.16558904  0.23729545  0.75566987    -0.03100
C218        C  0.13467871  0.22314443  0.72202849    -0.00500
C219        C  0.14869325  0.25558276  0.69016579    -0.23300
C220        C  0.18698290  0.28932006  0.70261389    -0.23600
C221        C  0.19800862  0.27816383  0.74238512    -0.00600
H222        H  0.13153618  0.25577552  0.66079832     0.13200
H223        H  0.20581327  0.31817851  0.68267808     0.13300
N224        N  0.50245706  0.12141235  0.87199963    -0.03100
C225        C  0.03398655  0.13464912  0.90477576    -0.00500
C226        C  0.02282160  0.10002110  0.93335956    -0.23300
C227        C  0.48753195  0.06504791  0.91770854    -0.23600
C228        C  0.47286118  0.07874027  0.88244140    -0.00600
H229        H  0.04041632  0.09905462  0.96208282     0.13200
H230        H  0.47175285  0.03382447  0.93410289     0.13300
O231        O  0.42979963  0.12003048  0.78017847    -0.81400
C232        C  0.08787144  0.18674039  0.71615748     0.98000
O233        O  0.06495904  0.15453876  0.74197277    -0.70500
O234        O  0.49492453  0.11162430  0.79532454    -0.74100
Al235      Al  0.49996723  0.12010346  0.73133352     1.49000
C236        C  0.50410035  0.13802266  0.82775544     0.93200
O237        O  0.51135744  0.24611409  0.77509385    -0.80300
O238        O  0.48473389  0.23273107  0.68885519    -0.73900
Al239      Al  0.47280418  0.18073810  0.77459472     1.90100
O240        O  0.06088526  0.24761074  0.73125351    -0.72900
O241        O  0.98960473  0.16659866  0.64183442    -0.72800
O242        O  0.06869679  0.19151682  0.68258449    -0.78400
O243        O  0.50504583  0.11725212  0.66726704    -0.76600
O244        O  0.49898761  0.16954368  0.73155309    -1.12800
O245        O  0.43495316  0.08796629  0.72060449    -0.72000
C246        C  0.41128827  0.09647136  0.74625976     0.98700
C247        C  0.04763606  0.26794553  0.75499608     0.95100
Al248      Al  0.02433288  0.20722233  0.68874946     1.55600
O249        O  0.50804229  0.17540256  0.82120081    -0.76600
C250        C  0.99450842  0.13369794  0.63505041     0.99300
C251        C  0.44855892  0.21800510  0.70911794     0.94200
O252        O  0.43560755  0.18422200  0.73228050    -0.81900
O253        O  0.23059990  0.17350069  0.89568565    -0.81400
C254        C  0.07960507  0.17230499  0.91170075     0.98000
O255        O  0.09865700  0.16775575  0.94544954    -0.70500
O256        O  0.10570395  0.11014646  0.89703411    -0.74100
Al257      Al  0.14231948  0.15105495  0.93941514     1.49000
C258        C  0.11898714  0.08989763  0.87309355     0.93200
O259        O  0.15892371  0.18324154  0.80680794    -0.80300
O260        O  0.23198351  0.26995972  0.90781207    -0.73900
Al261      Al  0.19380874  0.17732647  0.85333079     1.90100
O262        O  0.17281006  0.24734128  0.83246586    -0.72900
O263        O  0.16166190  0.24120370  0.96062628    -0.72800
O264        O  0.10237127  0.20445077  0.88578394    -0.78400
O265        O  0.17679589  0.19171930  0.98641339    -0.76600
O266        O  0.16773142  0.18866303  0.89641295    -1.12800
O267        O  0.18150644  0.12513624  0.93905203    -0.72000
C268        C  0.21709417  0.13918257  0.91785677     0.98700
C269        C  0.16347704  0.22086614  0.80009625     0.95100
Al270      Al  0.16721894  0.23847886  0.89660853     1.55600
O271        O  0.15494823  0.11194299  0.85250171    -0.76600
C272        C  0.17117588  0.22423659  0.99315228     0.99300
C273        C  0.25543686  0.26088470  0.88251139     0.94200
O274        O  0.23708392  0.23776513  0.84830062    -0.81900
N275        N  0.16804685  0.23839162  0.03745795    -0.03100
C276        C  0.13771194  0.25102649  0.04704544    -0.00500
C277        C  0.15175792  0.28003782  0.08186421    -0.23300
C278        C  0.18741708  0.28124665  0.09820020    -0.23600
C279        C  0.19927991  0.25761403  0.07040452    -0.00600
H280        H  0.13518612  0.29530623  0.09758650     0.13200
H281        H  0.20448212  0.30023037  0.12700788     0.13300
N282        N  0.33232633  0.28743912  0.92405440    -0.03100
C283        C  0.36213099  0.27403050  0.91499225    -0.00500
C284        C  0.34742028  0.24446998  0.88086561    -0.23300
C285        C  0.31230830  0.24396762  0.86394778    -0.23600
C286        C  0.30085795  0.26821455  0.89117836    -0.00600
H287        H  0.36347357  0.22880140  0.86548528     0.13200
H288        H  0.29565699  0.22563668  0.83460580     0.13300
O289        O  0.26298670  0.28841132  0.11261784    -0.81400
C290        C  0.42157212  0.35233409  0.05184738     0.98000
O291        O  0.39779757  0.31981454  0.07693474    -0.70500
O292        O  0.32581124  0.27671239  0.12760416    -0.74100
Al293      Al  0.33276331  0.28682500  0.06450717     1.49000
C294        C  0.33443064  0.30187605  0.16086285     0.93200
O295        O  0.34633928  0.41361220  0.10979596    -0.80300
O296        O  0.32077116  0.40132365  0.02157156    -0.73900
Al297      Al  0.30696375  0.34859821  0.10843686     1.90100
O298        O  0.39568739  0.41528178  0.06564629    -0.72900
O299        O  0.32528716  0.33498888  0.97509710    -0.72800
O300        O  0.40311427  0.35738586  0.01771351    -0.78400
O301        O  0.33916749  0.28471368  0.00071393    -0.76600
O302        O  0.33295242  0.33705602  0.06518971    -1.12800
O303        O  0.26821602  0.25653142  0.05268151    -0.72000
C304        C  0.24482280  0.26549479  0.07830422     0.98700
C305        C  0.38195703  0.43564146  0.08871220     0.95100
Al306      Al  0.35952057  0.37486881  0.02267657     1.55600
O307        O  0.34046703  0.34032224  0.15537043    -0.76600
C308        C  0.32987751  0.30194309  0.96831431     0.99300
C309        C  0.28476186  0.38801604  0.04181567     0.94200
O310        O  0.27102306  0.35482955  0.06636306    -0.81900
N311        N  0.33366180  0.06890792  0.70556908    -0.03100
C312        C  0.30420789  0.08281939  0.71438501    -0.00500
C313        C  0.31880430  0.11203852  0.74864665    -0.23300
C314        C  0.35381226  0.11222424  0.76558974    -0.23600
C315        C  0.36527424  0.08800577  0.73835083    -0.00600
H316        H  0.30322304  0.12851334  0.76337302     0.13200
H317        H  0.37101762  0.13120579  0.79427862     0.13300
N318        N  0.49576559  0.11853359  0.59071174    -0.03100
C319        C  0.02591823  0.10603300  0.58002121    -0.00500
C320        C  0.01149028  0.07761418  0.54483250    -0.23300
C321        C  0.47574136  0.07644092  0.52941782    -0.23600
C322        C  0.46391173  0.09941812  0.55816804    -0.00600
H323        H  0.02763186  0.06260367  0.52819012     0.13200
H324        H  0.45845857  0.05750722  0.50066481     0.13300
N325        N  0.16415324  0.44988776  0.54388988    -0.03100
C326        C  0.19744205  0.45854622  0.57348473    -0.00500
C327        C  0.18701005  0.42147582  0.59802617    -0.23300
C328        C  0.14896266  0.38950221  0.58365801    -0.23600
C329        C  0.13383911  0.40697784  0.55226556    -0.00600
H330        H  0.20606009  0.41688129  0.62326994     0.13200
H331        H  0.13250666  0.35756103  0.59823009     0.13300
N332        N  0.32877014  0.06498812  0.42609318    -0.03100
C333        C  0.29766991  0.05095853  0.39314032    -0.00500
C334        C  0.30862094  0.08497799  0.36354575    -0.23300
C335        C  0.34323731  0.12052912  0.37923973    -0.23600
C336        C  0.35789613  0.10781025  0.41538070    -0.00600
H337        H  0.29111624  0.08534749  0.33427591     0.13200
H338        H  0.35868724  0.15145851  0.36227499     0.13300
O339        O  0.32185792  0.01027360  0.47666510    -0.81400
C340        C  0.33461550  0.05232334  0.66203459     0.98000
O341        O  0.32264590  0.06685478  0.62958469    -0.70500
O342        O  0.39362291  0.09741781  0.57764200    -0.74100
Al343      Al  0.32871007  0.06412166  0.56662986     1.49000
C344        C  0.41758046  0.08991684  0.55139671     0.93200
O345        O  0.39648887  0.50288390  0.56435112    -0.80300
O346        O  0.27163803  0.43110771  0.56952876    -0.73900
Al347      Al  0.35783782  0.00551623  0.52279162     1.90100
O348        O  0.35051706  0.45699111  0.61197103    -0.72900
O349        O  0.26133581  0.49048333  0.61500005    -0.72800
O350        O  0.34112664  0.52040488  0.65614437    -0.78400
O351        O  0.26458146  0.02885501  0.55632244    -0.76600
O352        O  0.33090567  0.01493521  0.56628384    -1.12800
O353        O  0.33413392  0.07359855  0.50287606    -0.72000
C354        C  0.32609056  0.04782234  0.47021310     0.98700
C355        C  0.38576613  0.47131532  0.59055820     0.95100
Al356      Al  0.30771526  0.47749038  0.61021811     1.55600
O357        O  0.39923630  0.06654006  0.51745185    -0.76600
C358        C  0.24250692  0.49583930  0.58142969     0.99300
C359        C  0.28744135  0.41486794  0.54274156     0.94200
O360        O  0.32179840  0.44075023  0.52137923    -0.81900
O361        O  0.09331064  0.45240739  0.45017736    -0.81400
C362        C  0.25189718  0.01361395  0.38817677     0.98000
O363        O  0.22903218  0.48264911  0.41544715    -0.70500
O364        O  0.15754346  0.44149365  0.46766375    -0.74100
Al365      Al  0.16394593  0.44929077  0.40469080     1.49000
C366        C  0.16647721  0.46757723  0.50009183     0.93200
O367        O  0.17867982  0.07768452  0.44464414    -0.80300
O368        O  0.15342796  0.06460573  0.35827964    -0.73900
Al369      Al  0.13826090  0.01252366  0.44518398     1.90100
O370        O  0.22859339  0.07792303  0.40225384    -0.72900
O371        O  0.15468813  0.99556582  0.31891080    -0.72800
O372        O  0.23264850  0.01774712  0.35465556    -0.78400
O373        O  0.16993561  0.44502212  0.34166732    -0.76600
O374        O  0.16467634  0.99991906  0.40400280    -1.12800
O375        O  0.09896346  0.41850689  0.39245825    -0.72000
C376        C  0.07519579  0.42848112  0.41623463     0.98700
C377        C  0.21460064  0.09902342  0.42358541     0.95100
Al378      Al  0.19089588  0.03662303  0.36090036     1.55600
O379        O  0.17110089  0.50536702  0.49371810    -0.76600
C380        C  0.15852559  0.46221328  0.31143561     0.99300
C381        C  0.11649103  0.05042499  0.37660435     0.94200
O382        O  0.10284391  0.01750172  0.40148875    -0.81900
N383        N  0.49739892  0.40089636  0.37372277    -0.03100
C384        C  0.46723018  0.41358327  0.38344106    -0.00500
C385        C  0.48030969  0.44093015  0.41933289    -0.23300
C386        C  0.01632551  0.44242217  0.43526013    -0.23600
C387        C  0.02888191  0.41959493  0.40710729    -0.00600
H388        H  0.46388209  0.45639523  0.43468421     0.13200
H389        H  0.03338089  0.46143517  0.46392456     0.13300
N390        N  0.15403898  0.44709697  0.26732630    -0.03100
C391        C  0.18975893  0.45564914  0.24184989    -0.00500
C392        C  0.18369527  0.46758951  0.20107842    -0.23300
C393        C  0.14668440  0.47008235  0.20229656    -0.23600
C394        C  0.12686863  0.45393805  0.24040832    -0.00600
H395        H  0.20536684  0.47512264  0.17409709     0.13200
H396        H  0.12817870  0.47321588  0.17633292     0.13300
N397        N  0.00020834  0.40320246  0.09227082    -0.03100
C398        C  0.46752334  0.39016058  0.06014363    -0.00500
C399        C  0.47751553  0.42522347  0.03269337    -0.23300
C400        C  0.01178905  0.46039546  0.04874700    -0.23600
C401        C  0.02868933  0.44684483  0.08212299    -0.00600
H402        H  0.45981315  0.42647255  0.00420675     0.13200
H403        H  0.02643603  0.49133759  0.03189810     0.13300
N404        N  0.33006206  0.28281432  0.20435639    -0.03100
C405        C  0.36024207  0.29371758  0.23794935    -0.00500
C406        C  0.34825944  0.25784708  0.26492907    -0.23300
C407        C  0.31354953  0.22395658  0.24701473    -0.23600
C408        C  0.30017527  0.23965631  0.21217284    -0.00600
H409        H  0.36445371  0.25551356  0.29441564     0.13200
H410        H  0.29659458  0.19225273  0.26232604     0.13300
O411        O  0.05878486  0.33507404  0.24192781    -0.81400
C412        C  0.40519006  0.33072778  0.24613148     0.98000
O413        O  0.42335179  0.32597700  0.28053454    -0.70500
O414        O  0.43396559  0.27193742  0.23024183    -0.74100
Al415      Al  0.46778743  0.31018099  0.27572243     1.49000
C416        C  0.44912510  0.25268955  0.20740812     0.93200
O417        O  0.99831524  0.34975034  0.14293695    -0.80300
O418        O  0.05168460  0.43044322  0.24919193    -0.73900
Al419      Al  0.02640642  0.34045816  0.19528935     1.90100
O420        O  0.00188499  0.40903510  0.17021652    -0.72900
O421        O  0.48417290  0.39848686  0.29770364    -0.72800
O422        O  0.42844508  0.36203984  0.21977921    -0.78400
O423        O  0.50111242  0.35018878  0.32399208    -0.76600
O424        O  0.99523484  0.34923987  0.23436273    -1.12800
O425        O  0.00608884  0.28290318  0.27742512    -0.72000
C426        C  0.04377375  0.29889966  0.26043592     0.98700
C427        C  0.99868972  0.38563577  0.13673206     0.95100
Al428      Al  0.49165097  0.39734420  0.23383442     1.55600
O429        O  0.98661646  0.27539660  0.18961203    -0.76600
C430        C  0.49670668  0.38359817  0.32994667     0.99300
C431        C  0.08042859  0.42395476  0.23175218     0.94200
O432        O  0.07080702  0.39872097  0.19806840    -0.81900
N433        N  0.05922763  0.34675186  0.75758541    -0.03100
C434        C  0.07175847  0.31632774  0.74807108    -0.00500
C435        C  0.10104229  0.33040098  0.71340528    -0.23300
C436        C  0.10254311  0.36619954  0.69708913    -0.23600
C437        C  0.07872045  0.37800604  0.72468761    -0.00600
H438        H  0.11622020  0.31374484  0.69767819     0.13200
H439        H  0.12171604  0.38331683  0.66836653     0.13300
N440        N  0.10840203  0.01131812  0.87075605    -0.03100
C441        C  0.09537069  0.04138069  0.88007807    -0.00500
C442        C  0.06589436  0.02677567  0.91434648    -0.23300
C443        C  0.06497917  0.49140796  0.93108282    -0.23600
C444        C  0.08903014  0.47980948  0.90370430    -0.00600
H445        H  0.05030378  0.04289889  0.92974823     0.13200
H446        H  0.04647116  0.47471154  0.96039593     0.13300
O447        O  0.10914444  0.44147358  0.68212026    -0.81400
C448        C  0.17266486  0.10024381  0.74232956     0.98000
O449        O  0.14024057  0.07638161  0.71719270    -0.70500
O450        O  0.09723317  0.00416311  0.66675121    -0.74100
Al451      Al  0.10730606  0.01124828  0.72992539     1.49000
C452        C  0.12250336  0.51287524  0.63349402     0.93200
O453        O  0.23421940  0.02511081  0.68461836    -0.80300
O454        O  0.22237351  0.00020609  0.77282591    -0.73900
Al455      Al  0.16927869  0.48555870  0.68618662     1.90100
O456        O  0.23565754  0.07462408  0.72828816    -0.72900
O457        O  0.15577893  0.00426301  0.81938214    -0.72800
O458        O  0.17759174  0.08175454  0.77648452    -0.78400
O459        O  0.10515258  0.01771213  0.79392068    -0.76600
O460        O  0.15762319  0.01163118  0.72922958    -1.12800
O461        O  0.07719560  0.44673287  0.74201431    -0.72000
C462        C  0.08630159  0.42337359  0.71652369     0.98700
C463        C  0.25612461  0.06087759  0.70538152     0.95100
Al464      Al  0.19546161  0.03849914  0.77157445     1.55600
O465        O  0.16089215  0.51872107  0.63896488    -0.76600
C466        C  0.12264725  0.00870736  0.82633403     0.99300
C467        C  0.20917128  0.46415315  0.75284375     0.94200
O468        O  0.17569090  0.45000133  0.72870040    -0.81900
N469        N  0.38622328  0.00754327  0.36857245    -0.03100
C470        C  0.37203087  0.47633085  0.40142848    -0.00500
C471        C  0.40590281  0.48715629  0.43120389    -0.23300
C472        C  0.44157220  0.02182058  0.41567116    -0.23600
C473        C  0.42903066  0.03660044  0.37947052    -0.00600
H474        H  0.40611649  0.46956025  0.46050690     0.13200
H475        H  0.47243950  0.03724079  0.43278602     0.13300
N476        N  0.27064299  0.34337370  0.25039783    -0.03100
C477        C  0.27936340  0.37687971  0.22106798    -0.00500
C478        C  0.24222404  0.36679045  0.19681727    -0.23300
C479        C  0.21010896  0.32876794  0.21121827    -0.23600
C480        C  0.22760454  0.31328088  0.24221867    -0.00600
H481        H  0.23774363  0.38596422  0.17161889     0.13200
H482        H  0.17815268  0.31247261  0.19669905     0.13300
N483        N  0.05835912  0.34468769  0.03937530    -0.03100
C484        C  0.04431880  0.31390052  0.07313506    -0.00500
C485        C  0.07686482  0.32787860  0.10480022    -0.23300
C486        C  0.11059466  0.36605957  0.09213358    -0.23600
C487        C  0.09929040  0.37706379  0.05243156    -0.00600
H488        H  0.07713663  0.31073460  0.13413202     0.13200
H489        H  0.13950988  0.38486036  0.11193812     0.13300
N490        N  0.44199068  0.18187822  0.92317764    -0.03100
C491        C  0.45551557  0.21313103  0.89009149    -0.00500
C492        C  0.42105173  0.20189427  0.86131453    -0.23300
C493        C  0.38587739  0.16680219  0.87710157    -0.23600
C494        C  0.39926628  0.15230078  0.91277235    -0.00600
H495        H  0.42030220  0.21943966  0.83245741     0.13200
H496        H  0.35466823  0.15102229  0.86062659     0.13300
N497        N  0.39024997  0.01334333  0.08896599    -0.03100
C498        C  0.40382928  0.48373544  0.07964930    -0.00500
C499        C  0.43277305  0.49835109  0.04507575    -0.23300
C500        C  0.43319247  0.03361835  0.02857316    -0.23600
C501        C  0.40925506  0.04507709  0.05622813    -0.00600
H502        H  0.44907985  0.48276188  0.02999987     0.13200
H503        H  0.45218855  0.05100192  0.99992688     0.13300
N504        N  0.43940643  0.17464035  0.20424555    -0.03100
C505        C  0.42655350  0.20450278  0.21492100    -0.00500
C506        C  0.39832056  0.19001607  0.25032835    -0.23300
C507        C  0.39763822  0.15454164  0.26585210    -0.23600
C508        C  0.42064987  0.14286857  0.23693437    -0.00600
H509        H  0.38311447  0.20595973  0.26699774     0.13200
H510        H  0.37883687  0.13720503  0.29468692     0.13300
O511        O  0.44125867  0.10975960  0.01454977    -0.81400
C512        C  0.00799285  0.26716962  0.07908297     0.98000
O513        O  0.47570208  0.24443853  0.05337213    -0.70500
O514        O  0.43250985  0.17459789  0.99992384    -0.74100
Al515      Al  0.44130185  0.17955336  0.06384289     1.49000
C516        C  0.45881392  0.18387281  0.96735479     0.93200
O517        O  0.06744224  0.19135324  0.01921955    -0.80300
O518        O  0.05367507  0.16370385  0.10567902    -0.73900
Al519      Al  0.00202427  0.15281357  0.01982192     1.90100
O520        O  0.06900847  0.24026338  0.06389309    -0.72900
O521        O  0.98755113  0.16853351  0.15301484    -0.72800
O522        O  0.01289583  0.24791014  0.11253778    -0.78400
O523        O  0.43852867  0.18451644  0.12782333    -0.76600
O524        O  0.99079314  0.17854454  0.06329811    -1.12800
O525        O  0.40929409  0.11462382  0.07446180    -0.72000
C526        C  0.41779389  0.09112468  0.04858221     0.98700
C527        C  0.08934164  0.22722358  0.03988344     0.95100
Al528      Al  0.02839384  0.20345820  0.10614230     1.55600
O529        O  0.49644811  0.18836797  0.97376271    -0.76600
C530        C  0.45475629  0.17362947  0.15991727     0.99300
C531        C  0.03919058  0.12784486  0.08497029     0.94200
O532        O  0.00578143  0.11526500  0.06131449    -0.81900
O533        O  0.32402787  0.07549406  0.23041308    -0.81400
C534        C  0.31696899  0.42176410  0.21301579     0.98000
O535        O  0.31185047  0.44072299  0.17941406    -0.70500
O536        O  0.25224680  0.45081497  0.22480555    -0.74100
Al537      Al  0.29882272  0.48706025  0.18432646     1.49000
C538        C  0.23588565  0.46641526  0.25166793     0.93200
O539        O  0.33143325  0.00068331  0.31805972    -0.80300
O540        O  0.41869821  0.07274496  0.21711359    -0.73900
Al541      Al  0.32659789  0.03671578  0.27193400     1.90100
O542        O  0.39484860  0.01311005  0.29174654    -0.72900
O543        O  0.38822852  0.50196714  0.16493979    -0.72800
O544        O  0.34995483  0.44367853  0.23817795    -0.78400
O545        O  0.34191537  0.52075216  0.13864169    -0.76600
O546        O  0.33614389  0.01000991  0.22836936    -1.12800
O547        O  0.27827416  0.02974989  0.18266813    -0.72000
C548        C  0.29247466  0.06483658  0.20421353     0.98700
C549        C  0.36906554  0.00501523  0.32446477     0.95100
Al550      Al  0.38536864  0.00782648  0.22796971     1.55600
O551        O  0.26171476  0.00060128  0.27323886    -0.76600
C552        C  0.37375746  0.51414648  0.13259924     0.99300
C553        C  0.41111993  0.09654889  0.24347710     0.94200
O554        O  0.38762069  0.07805742  0.27735713    -0.81900
O555        O  0.00401025  0.33730496  0.98828917    -0.81400
C556        C  0.04528351  0.35018867  0.80192407     0.98000
O557        O  0.06213988  0.34057966  0.83446584    -0.70500
O558        O  0.09067789  0.41090893  0.88721789    -0.74100
Al559      Al  0.05930868  0.34623394  0.89847507     1.49000
C560        C  0.08149171  0.43430654  0.91246403     0.93200
O561        O  0.49374170  0.40938795  0.90044423    -0.80300
O562        O  0.43089568  0.28473674  0.89747972    -0.73900
Al563      Al  0.99789486  0.37238126  0.94207420     1.90100
O564        O  0.44617966  0.36088708  0.85606176    -0.72900
O565        O  0.48868775  0.27789789  0.84953827    -0.72800
O566        O  0.51304956  0.35628195  0.80874077    -0.78400
O567        O  0.02519532  0.28143373  0.90932669    -0.76600
O568        O  0.00945009  0.34674652  0.89871180    -1.12800
O569        O  0.06832818  0.35193588  0.96255469    -0.72000
C570        C  0.04183189  0.34235885  0.99497582     0.98700
C571        C  0.45980693  0.39613738  0.87771382     0.95100
Al572      Al  0.47207093  0.32163558  0.85555319     1.55600
O573        O  0.05834342  0.41596127  0.94678897    -0.76600
C574        C  0.49315154  0.25876497  0.88329395     0.99300
C575        C  0.41062737  0.29767370  0.92180143     0.94200
O576        O  0.43259192  0.33328659  0.94287029    -0.81900
N577        N  0.22241103  0.17639909  0.42063191    -0.03100
C578        C  0.23509798  0.14623478  0.41090990    -0.00500
C579        C  0.26246593  0.15935692  0.37495254    -0.23300
C580        C  0.26381504  0.19526825  0.35889849    -0.23600
C581        C  0.24099117  0.20779776  0.38710410    -0.00600
H582        H  0.27792454  0.14295188  0.35954016     0.13200
H583        H  0.28272370  0.21226522  0.33010788     0.13300
N584        N  0.26865903  0.33325212  0.52711525    -0.03100
C585        C  0.27568907  0.30627400  0.55410537    -0.00500
C586        C  0.29151671  0.32607300  0.59227237    -0.23300
C587        C  0.28855026  0.36278493  0.59345893    -0.23600
C588        C  0.27678554  0.36882579  0.55256350    -0.00600
H589        H  0.29438940  0.30756019  0.61842186     0.13200
H590        H  0.29562120  0.38421310  0.62057757     0.13300
O591        O  0.27356776  0.27216922  0.34383418    -0.81400
C592        C  0.33469589  0.43054250  0.40607392     0.98000
O593        O  0.30379125  0.40779220  0.37873257    -0.70500
O594        O  0.26242288  0.33628866  0.32660698    -0.74100
Al595      Al  0.27036084  0.34266325  0.38950990     1.49000
C596        C  0.28845049  0.34540419  0.29406222     0.93200
O597        O  0.39883234  0.35766574  0.34916292    -0.80300
O598        O  0.38564139  0.33206791  0.43567332    -0.73900
Al599      Al  0.33369068  0.31721055  0.34866097     1.90100
O600        O  0.39897238  0.40731778  0.39173483    -0.72900
O601        O  0.31661930  0.33329833  0.47515399    -0.72800
O602        O  0.33877934  0.41117260  0.43949240    -0.78400
O603        O  0.26608394  0.34863873  0.45261382    -0.76600
O604        O  0.32101112  0.34339594  0.39004264    -1.12800
O605        O  0.23967285  0.27770592  0.40171568    -0.72000
C606        C  0.24971255  0.25402585  0.37788426     0.98700
C607        C  0.42013117  0.39338348  0.37044558     0.95100
Al608      Al  0.35769294  0.36952709  0.43312348     1.55600
O609        O  0.32632214  0.35011236  0.30022375    -0.76600
C610        C  0.28344601  0.33741927  0.48284986     0.99300
C611        C  0.37159704  0.29523041  0.41728386     0.94200
O612        O  0.33894064  0.28171817  0.39204654    -0.81900
N613        N  0.22386938  0.17931534  0.70239464    -0.03100
C614        C  0.21050078  0.14637338  0.73433890    -0.00500
C615        C  0.24526412  0.15640431  0.76225850    -0.23300
C616        C  0.28053399  0.19109136  0.74687889    -0.23600
C617        C  0.26734545  0.20791556  0.71313514    -0.00600
H618        H  0.24631366  0.13843769  0.79058696     0.13200
H619        H  0.31140745  0.20572170  0.76394148     0.13300
N620        N  0.10370890  0.00911467  0.58997527    -0.03100
C621        C  0.06061967  0.47927348  0.58169685    -0.00500
C622        C  0.04532454  0.49285340  0.54669607    -0.23300
C623        C  0.07938673  0.02781634  0.52928169    -0.23600
C624        C  0.11499336  0.03962530  0.55658872    -0.00600
H625        H  0.01379228  0.47602616  0.53106765     0.13200
H626        H  0.07732427  0.04427450  0.49988615     0.13300
O627        O  0.15691667  0.23857375  0.55224081    -0.81400
C628        C  0.15213998  0.08464241  0.54863612     0.98000
O629        O  0.14759518  0.10290705  0.51421016    -0.70500
O630        O  0.09353877  0.11373861  0.56457835    -0.74100
Al631      Al  0.13183557  0.14738136  0.51888607     1.49000
C632        C  0.07420047  0.12892302  0.58726083     0.93200
O633        O  0.17096147  0.17792919  0.65143613    -0.80300
O634        O  0.25222671  0.23112968  0.54536697    -0.73900
Al635      Al  0.16203827  0.20612901  0.59904620     1.90100
O636        O  0.23036485  0.18134577  0.62447950    -0.72900
O637        O  0.22021213  0.16359281  0.49683277    -0.72800
O638        O  0.18337895  0.10784997  0.57504322    -0.78400
O639        O  0.17185074  0.18042096  0.47043052    -0.76600
O640        O  0.17087841  0.17487337  0.56012334    -1.12800
O641        O  0.10467951  0.18580642  0.51700011    -0.72000
C642        C  0.12069409  0.22352370  0.53384155     0.98700
C643        C  0.20673892  0.17812688  0.65782713     0.95100
Al644      Al  0.21891302  0.17111176  0.56080954     1.55600
O645        O  0.09686504  0.16652930  0.60472642    -0.76600
C646        C  0.20521878  0.17590399  0.46447167     0.99300
C647        C  0.24574086  0.25986691  0.56277151     0.94200
O648        O  0.22036454  0.25025870  0.59637710    -0.81900
N649        N  0.05274326  0.73341342  0.53764728    -0.03100
C650        C  0.04084224  0.75186951  0.57175720    -0.00500
C651        C  0.07647172  0.77433341  0.59956417    -0.23300
C652        C  0.11072464  0.77317003  0.58202451    -0.23600
C653        C  0.09535526  0.74538935  0.54645671    -0.00600
H654        H  0.07867209  0.79288419  0.62893545     0.13200
H655        H  0.14334028  0.78901105  0.59586871     0.13300
N656        N  0.43820062  0.78299639  0.42516523    -0.03100
C657        C  0.45031526  0.76300686  0.39277446    -0.00500
C658        C  0.41469253  0.73819451  0.36590338    -0.23300
C659        C  0.38015172  0.73881115  0.38246853    -0.23600
C660        C  0.39506874  0.76965348  0.41548960    -0.00600
H661        H  0.41281276  0.71899226  0.33728549     0.13200
H662        H  0.34874470  0.72318940  0.36647642     0.13300
O663        O  0.06543830  0.84849870  0.56650460    -0.81400
C664        C  0.41561497  0.84930894  0.55365804     0.98000
O665        O  0.43809555  0.85329246  0.51907183    -0.70500
O666        O  0.00220158  0.91059453  0.56733895    -0.74100
Al667      Al  0.99867321  0.87065504  0.52411261     1.49000
C668        C  0.03623517  0.93129891  0.59012152     0.93200
O669        O  0.98575649  0.83956958  0.65672835    -0.80300
O670        O  0.47114865  0.75191049  0.55566965    -0.73900
Al671      Al  0.02564109  0.84481074  0.60945776     1.90100
O672        O  0.43565164  0.77546708  0.63146589    -0.72900
O673        O  0.42894039  0.78027713  0.50258458    -0.69200
O674        O  0.40685863  0.81717719  0.57926579    -0.78400
O675        O  0.49280887  0.83044078  0.47647195    -0.76600
O676        O  0.48769858  0.83306978  0.56682617    -1.12800
O677        O  0.06406475  0.89716165  0.52358279    -0.72000
C678        C  0.08584927  0.88263867  0.54389862     0.98700
C679        C  0.45277986  0.80224389  0.66371555     0.95100
Al680      Al  0.43784916  0.78335115  0.56726203     1.55600
O681        O  0.05135446  0.90986868  0.60994029    -0.76600
C682        C  0.45513490  0.79750378  0.46976039     0.99300
C683        C  0.00378571  0.76080271  0.58061231     0.94200
O684        O  0.00923680  0.78438183  0.61472037    -0.81900
N685        N  0.10680313  0.61752235  0.08640815    -0.03100
C686        C  0.11978971  0.59965076  0.05266333    -0.00500
C687        C  0.08430773  0.57559682  0.02541648    -0.23300
C688        C  0.04945705  0.57552734  0.04248306    -0.23600
C689        C  0.06380057  0.60414602  0.07731575    -0.00600
H690        H  0.08270354  0.55698740  0.99655170     0.13200
H691        H  0.01791541  0.56001858  0.02688629     0.13300
N692        N  0.22582181  0.57651462  0.19693279    -0.03100
C693        C  0.20804186  0.58652814  0.23328537    -0.00500
C694        C  0.23970832  0.60500185  0.26583869    -0.23300
C695        C  0.27734553  0.61095283  0.24957035    -0.23600
C696        C  0.26799671  0.58896755  0.20989909    -0.00600
H697        H  0.23714944  0.61728877  0.29775191     0.13200
H698        H  0.30715948  0.62447040  0.26869363     0.13300
O699        O  0.22694586  0.00653205  0.10501598    -0.81400
C700        C  0.15845714  0.59340966  0.04273439     0.98000
O701        O  0.19252967  0.60470783  0.06638893    -0.70500
O702        O  0.23861055  0.57982485  0.11949749    -0.74100
Al703      Al  0.22709080  0.57427953  0.05496230     1.49000
C704        C  0.21101327  0.56433909  0.15108199     0.93200
O705        O  0.10185932  0.96057960  0.10221777    -0.80300
O706        O  0.11291502  0.94484340  0.01547707    -0.73900
Al707      Al  0.16692416  0.98917391  0.09854019     1.90100
O708        O  0.09579380  0.00447254  0.05664189    -0.72900
O709        O  0.17824857  0.51610232  0.96736228    -0.72800
O710        O  0.15341230  0.56995259  0.00860002    -0.78400
O711        O  0.22789424  0.58088612  0.99209043    -0.76600
O712        O  0.17698587  0.52390942  0.05540877    -1.12800
O713        O  0.25868538  0.54010041  0.04435959    -0.72000
C714        C  0.24966712  0.50899256  0.07184666     0.98700
C715        C  0.07778239  0.97247554  0.08304505     0.95100
Al716      Al  0.13781302  0.50994598  0.01417781     1.55600
O717        O  0.17282206  0.53414215  0.14176957    -0.76600
C718        C  0.21084363  0.55380365  0.96043104     0.99300
C719        C  0.12692553  0.92372599  0.03777642     0.94200
O720        O  0.16202908  0.94533387  0.05891360    -0.81900
O721        O  0.23140567  0.68149178  0.22657301    -0.81400
C722        C  0.08153486  0.68250394  0.21377835     0.98000
O723        O  0.10508603  0.68799903  0.17957913    -0.70500
O724        O  0.16941636  0.74486522  0.22711396    -0.74100
Al725      Al  0.16564142  0.70471446  0.18463822     1.49000
C726        C  0.20337891  0.76518303  0.24999004     0.93200
O727        O  0.15151228  0.67200221  0.31788705    -0.80300
O728        O  0.13832451  0.58609051  0.21532928    -0.73900
Al729      Al  0.19167460  0.67805349  0.27001162     1.90100
O730        O  0.10147044  0.60805652  0.29198204    -0.72900
O731        O  0.09640760  0.61459367  0.16314688    -0.72800
O732        O  0.07276536  0.64996086  0.23883573    -0.78400
O733        O  0.16050551  0.66469964  0.13770044    -0.76600
O734        O  0.15399014  0.66691459  0.22750431    -1.12800
O735        O  0.23078887  0.73068034  0.18400571    -0.72000
C736        C  0.25218725  0.71551928  0.20380422     0.98700
C737        C  0.11873519  0.63422204  0.32474691     0.95100
Al738      Al  0.10438434  0.61691062  0.22729747     1.55600
O739        O  0.21787288  0.74338063  0.27034389    -0.76600
C740        C  0.12319246  0.63170783  0.13084173     0.99300
C741        C  0.17047364  0.59489617  0.24087877     0.94200
O742        O  0.17468407  0.61767585  0.27524219    -0.81900
N743        N  0.10441312  0.61719635  0.36939195    -0.03100
C744        C  0.09114594  0.57409579  0.37909430    -0.00500
C745        C  0.06054923  0.55918475  0.41243926    -0.23300
C746        C  0.05988853  0.59366684  0.42901889    -0.23600
C747        C  0.08453914  0.62925160  0.40196426    -0.00600
H748        H  0.04492062  0.52772796  0.42838796     0.13200
H749        H  0.04064583  0.59172954  0.45766584     0.13300
N750        N  0.05386588  0.73111213  0.25673115    -0.03100
C751        C  0.06579912  0.77370537  0.24797360    -0.00500
C752        C  0.09379355  0.78927033  0.21254496    -0.23300
C753        C  0.09509923  0.75516882  0.19495110    -0.23600
C754        C  0.07252193  0.71943927  0.22264191    -0.00600
H755        H  0.10979416  0.82197811  0.19891043     0.13200
H756        H  0.11391402  0.75756768  0.16571373     0.13300
O757        O  0.48343386  0.73220549  0.34992006    -0.81400
C758        C  0.07686240  0.66710927  0.41061346     0.98000
O759        O  0.08584261  0.69961827  0.38550642    -0.70500
O760        O  0.05683717  0.74081266  0.33333108    -0.74100
Al761      Al  0.05425514  0.73293662  0.39720840     1.49000
C762        C  0.03967319  0.71422454  0.30101364     0.93200
O763        O  0.44015866  0.60708774  0.35380982    -0.80300
O764        O  0.42837705  0.61898080  0.44138275    -0.73900
Al765      Al  0.46629484  0.67171699  0.35513503     1.90100
O766        O  0.48853114  0.60452735  0.39635909    -0.72900
O767        O  0.99867375  0.68530470  0.48707167    -0.72800
O768        O  0.05362813  0.66226657  0.44477450    -0.78400
O769        O  0.06235980  0.73574796  0.46103426    -0.76600
O770        O  0.50428963  0.68297789  0.39737854    -1.12800
O771        O  0.02092294  0.76454971  0.40895135    -0.72000
C772        C  0.48830666  0.75548225  0.38399896     0.98700
C773        C  0.45465980  0.58482147  0.37282854     0.95100
Al774      Al  0.49309470  0.64513563  0.43982761     1.55600
O775        O  0.50623673  0.67710044  0.30770115    -0.76600
C776        C  0.03580745  0.71881344  0.49348098     0.99300
C777        C  0.40611202  0.63345313  0.42228835     0.94200
O778        O  0.42590650  0.66736189  0.39882309    -0.81900
N779        N  0.27508830  0.95638955  0.03666230    -0.03100
C780        C  0.25596075  0.96995608  0.06766515    -0.00500
C781        C  0.23103425  0.93528946  0.09599888    -0.23300
C782        C  0.23194074  0.90004352  0.08146111    -0.23600
C783        C  0.26142589  0.91345039  0.04715190    -0.00600
H784        H  0.21163453  0.93426220  0.12404390     0.13200
H785        H  0.21612950  0.86886795  0.09808671     0.13300
N786        N  0.22514125  0.57021358  0.91646821    -0.03100
C787        C  0.24433306  0.55754189  0.88439709    -0.00500
C788        C  0.26798642  0.59240361  0.85620102    -0.23300
C789        C  0.26640607  0.62696989  0.87143542    -0.23600
C790        C  0.23818087  0.61290421  0.90666348    -0.00600
H791        H  0.28800370  0.59394642  0.82869200     0.13200
H792        H  0.28230092  0.65854346  0.85590008     0.13300
O793        O  0.40428444  0.52123626  0.90031690    -0.81400
C794        C  0.25363455  0.52069274  0.87930460     0.98000
O795        O  0.27816191  0.52552016  0.84646542    -0.70500
O796        O  0.34148890  0.58379142  0.89509567    -0.74100
Al797      Al  0.33810576  0.54233487  0.85384840     1.49000
C798        C  0.37434329  0.60402876  0.91971970     0.93200
O799        O  0.32087928  0.51152154  0.98622487    -0.80300
O800        O  0.30965945  0.92404261  0.88824751    -0.73900
Al801      Al  0.36239870  0.51737336  0.94116926     1.90100
O802        O  0.27188276  0.94703872  0.96047770    -0.72900
O803        O  0.26805532  0.95193015  0.83381635    -0.72800
O804        O  0.24431669  0.98902773  0.90596619    -0.78400
O805        O  0.33268826  0.50123170  0.80844243    -0.76600
O806        O  0.32569793  0.50527613  0.89737515    -1.12800
O807        O  0.40291390  0.56807247  0.85452330    -0.72000
C808        C  0.42459569  0.55411013  0.87572074     0.98700
C809        C  0.28894972  0.97333203  0.99275701     0.95100
Al810      Al  0.27576352  0.95531319  0.89714543     1.55600
O811        O  0.38813392  0.58221197  0.94094966    -0.76600
C812        C  0.29462681  0.96911051  0.80171336     0.99300
C813        C  0.34116916  0.93316103  0.91502266     0.94200
O814        O  0.34564698  0.95732393  0.94807449    -0.81900
N815        N  0.43860877  0.78583771  0.70821363    -0.03100
C816        C  0.42092764  0.79884867  0.74214841    -0.00500
C817        C  0.39697997  0.76341329  0.76958043    -0.23300
C818        C  0.39679527  0.72857106  0.75245267    -0.23600
C819        C  0.42521336  0.74286009  0.71737097    -0.00600
H820        H  0.37849387  0.76182258  0.79860345     0.13200
H821        H  0.38124106  0.69702356  0.76804209     0.13300
N822        N  0.39765461  0.90486163  0.59790630    -0.03100
C823        C  0.40793130  0.88728209  0.56159009    -0.00500
C824        C  0.42684144  0.91919788  0.52927760    -0.23300
C825        C  0.43264624  0.95672395  0.54565567    -0.23600
C826        C  0.41019475  0.94708472  0.58511734    -0.00600
H827        H  0.43926835  0.91680048  0.49736876     0.13200
H828        H  0.44615250  0.98655915  0.52654658     0.13300
N829        N  0.27800609  0.95506663  0.75775416    -0.03100
C830        C  0.23507743  0.94138636  0.74710753    -0.00500
C831        C  0.22163297  0.91174211  0.71306845    -0.23300
C832        C  0.25674589  0.91039738  0.69893377    -0.23600
C833        C  0.29144404  0.93543784  0.72714686    -0.00600
H834        H  0.19039537  0.89574386  0.69661254     0.13200
H835        H  0.25554132  0.89058174  0.67125812     0.13300
N836        N  0.39093147  0.90446977  0.87821804    -0.03100
C837        C  0.43364369  0.91756918  0.88813427    -0.00500
C838        C  0.44775573  0.94627845  0.92290200    -0.23300
C839        C  0.41317705  0.94811030  0.93779400    -0.23600
C840        C  0.37828929  0.92416105  0.90981033    -0.00600
H841        H  0.47933180  0.96226216  0.93845198     0.13200
H842        H  0.41466873  0.96835946  0.96499438     0.13300
O843        O  0.32785949  0.90621134  0.68979917    -0.81400
C844        C  0.41455876  0.83740378  0.75200903     0.98000
O845        O  0.42588691  0.87147763  0.72834915    -0.70500
O846        O  0.40112278  0.91756559  0.67529509    -0.74100
Al847      Al  0.39549147  0.90605303  0.73979433     1.49000
C848        C  0.38551313  0.89001799  0.64374582     0.93200
O849        O  0.28143462  0.78107432  0.69254777    -0.80300
O850        O  0.26585569  0.79186170  0.77917865    -0.73900
Al851      Al  0.31024173  0.84612480  0.69626021     1.90100
O852        O  0.32565683  0.77497722  0.73759394    -0.72900
O853        O  0.33709884  0.85695419  0.82745806    -0.72800
O854        O  0.39099603  0.83228409  0.78610422    -0.78400
O855        O  0.40190889  0.90674348  0.80266235    -0.76600
O856        O  0.34500538  0.85604447  0.73935684    -1.12800
O857        O  0.36148266  0.93782273  0.75040820    -0.72000
C858        C  0.33039747  0.92894189  0.72297211     0.98700
C859        C  0.29337869  0.75695927  0.71155539     0.95100
Al860      Al  0.33099987  0.81671769  0.78043878     1.55600
O861        O  0.35518907  0.85190849  0.65307760    -0.76600
C862        C  0.37470198  0.88975281  0.83430502     0.99300
C863        C  0.24468377  0.80593369  0.75704888     0.94200
O864        O  0.26629085  0.84115462  0.73599063    -0.81900
N865        N  0.16558842  0.73729566  0.75567022    -0.03100
C866        C  0.13467789  0.72314446  0.72202885    -0.00500
C867        C  0.14869208  0.75558301  0.69016641    -0.23300
C868        C  0.18698158  0.78932045  0.70261456    -0.23600
C869        C  0.19800771  0.77816432  0.74238557    -0.00600
H870        H  0.13153494  0.75577577  0.66079897     0.13200
H871        H  0.20581170  0.81817912  0.68267874     0.13300
N872        N  0.50245675  0.62141267  0.87200066    -0.03100
C873        C  0.03398670  0.63464864  0.90477532    -0.00500
C874        C  0.02282172  0.60002071  0.93335922    -0.23300
C875        C  0.48753178  0.56504817  0.91770923    -0.23600
C876        C  0.47286087  0.57874061  0.88244237    -0.00600
H877        H  0.04041647  0.59905416  0.96208239     0.13200
H878        H  0.47175276  0.53382448  0.93410334     0.13300
O879        O  0.42979969  0.62003127  0.78017972    -0.81400
C880        C  0.08787073  0.68673988  0.71615723     0.98000
O881        O  0.06495819  0.65453818  0.74197241    -0.70500
O882        O  0.49492430  0.61162468  0.79532561    -0.74100
Al883      Al  0.49996723  0.62010382  0.73133461     1.49000
C884        C  0.50410018  0.63802302  0.82775654     0.93200
O885        O  0.51135831  0.74611481  0.77509519    -0.80300
O886        O  0.48473421  0.73273166  0.68885617    -0.73900
Al887      Al  0.47280464  0.68073894  0.77459612     1.90100
O888        O  0.06088445  0.74760997  0.73125277    -0.72900
O889        O  0.98960389  0.66659772  0.64183386    -0.72800
O890        O  0.06869621  0.69151604  0.68258394    -0.78400
O891        O  0.50504599  0.61725227  0.66726807    -0.76600
O892        O  0.49898769  0.66954412  0.73155417    -1.12800
O893        O  0.43495322  0.58796690  0.72060575    -0.72000
C894        C  0.41128840  0.59647218  0.74626092     0.98700
C895        C  0.04763505  0.76794470  0.75499514     0.95100
Al896      Al  0.02433215  0.70722142  0.68874870     1.55600
O897        O  0.50804263  0.67540309  0.82120196    -0.76600
C898        C  0.99450761  0.63369707  0.63504991     0.99300
C899        C  0.44855947  0.71800624  0.70911927     0.94200
O900        O  0.43560811  0.68422348  0.73228243    -0.81900
O901        O  0.23060057  0.67350110  0.89568632    -0.81400
C902        C  0.07960513  0.67230448  0.91170059     0.98000
O903        O  0.09865697  0.66775549  0.94544966    -0.70500
O904        O  0.10570481  0.61014676  0.89703449    -0.74100
Al905      Al  0.14231995  0.65105525  0.93941564     1.49000
C906        C  0.11898807  0.58989819  0.87309365     0.93200
O907        O  0.15892434  0.68324210  0.80680823    -0.80300
O908        O  0.23198307  0.76996041  0.90781265    -0.73900
Al909      Al  0.19380937  0.67732711  0.85333129     1.90100
O910        O  0.17280997  0.74734154  0.83246621    -0.72900
O911        O  0.16166141  0.74120363  0.96062666    -0.72800
O912        O  0.10237129  0.70445016  0.88578375    -0.78400
O913        O  0.17679621  0.69171989  0.98641402    -0.76600
O914        O  0.16773176  0.68866333  0.89641342    -1.12800
O915        O  0.18150711  0.62513670  0.93905279    -0.72000
C916        C  0.21709475  0.63918283  0.91785739     0.98700
C917        C  0.16347702  0.72086645  0.80009659     0.95100
Al918      Al  0.16721867  0.73847887  0.89660885     1.55600
O919        O  0.15494917  0.61194372  0.85250186    -0.76600
C920        C  0.17117603  0.72423712  0.99315275     0.99300
C921        C  0.25543667  0.76088560  0.88251217     0.94200
O922        O  0.23708405  0.73776593  0.84830138    -0.81900
N923        N  0.16804743  0.73839268  0.03745836    -0.03100
C924        C  0.13771223  0.75102705  0.04704587    -0.00500
C925        C  0.15175768  0.78003822  0.08186481    -0.23300
C926        C  0.18741723  0.78124783  0.09820075    -0.23600
C927        C  0.19928040  0.75761550  0.07040499    -0.00600
H928        H  0.13518542  0.79530611  0.09758709     0.13200
H929        H  0.20448198  0.80023153  0.12700846     0.13300
N930        N  0.33232600  0.78744026  0.92405544    -0.03100
C931        C  0.36213072  0.77403177  0.91499317    -0.00500
C932        C  0.34742011  0.74447150  0.88086633    -0.23300
C933        C  0.31230827  0.74396911  0.86394859    -0.23600
C934        C  0.30085776  0.76821580  0.89117926    -0.00600
H935        H  0.36347348  0.72880321  0.86548555     0.13200
H936        H  0.29565707  0.72563806  0.83460642     0.13300
O937        O  0.26298684  0.78841248  0.11261899    -0.81400
C938        C  0.42157179  0.85233392  0.05184800     0.98000
O939        O  0.39779732  0.81981457  0.07693562    -0.70500
O940        O  0.32581079  0.77671232  0.12760497    -0.74100
Al941      Al  0.33276305  0.78682545  0.06450816     1.49000
C942        C  0.33443091  0.80187589  0.16086380     0.93200
O943        O  0.34634085  0.91361305  0.10979798    -0.80300
O944        O  0.32077189  0.90132492  0.02157321    -0.73900
Al945      Al  0.30696464  0.84859923  0.10843867     1.90100
O946        O  0.39568813  0.91528222  0.06564735    -0.72900
O947        O  0.32528682  0.83498976  0.97509845    -0.72800
O948        O  0.40311379  0.85738586  0.01771439    -0.78400
O949        O  0.33916702  0.78471432  0.00071490    -0.76600
O950        O  0.33295257  0.83705674  0.06519104    -1.12800
O951        O  0.26821609  0.75653242  0.05268257    -0.72000
C952        C  0.24482307  0.76549609  0.07830515     0.98700
C953        C  0.38195816  0.93564210  0.08871347     0.95100
Al954      Al  0.35952073  0.87486949  0.02267785     1.55600
O955        O  0.34046790  0.84032233  0.15537175    -0.76600
C956        C  0.32987703  0.80194392  0.96831544     0.99300
C957        C  0.28476290  0.88801784  0.04181775     0.94200
O958        O  0.27102414  0.85483171  0.06636572    -0.81900
N959        N  0.33366209  0.56890886  0.70556977    -0.03100
C960        C  0.30420841  0.58282070  0.71438512    -0.00500
C961        C  0.31880496  0.61204037  0.74864630    -0.23300
C962        C  0.35381278  0.61222604  0.76558977    -0.23600
C963        C  0.36527460  0.58800706  0.73835146    -0.00600
H964        H  0.30322373  0.62851527  0.76337239     0.13200
H965        H  0.37101802  0.63120771  0.79427881     0.13300
N966        N  0.49576554  0.61853343  0.59071267    -0.03100
C967        C  0.02591825  0.60603277  0.58002127    -0.00500
C968        C  0.01149070  0.57761383  0.54483261    -0.23300
C969        C  0.47574108  0.57644178  0.52941797    -0.23600
C970        C  0.46391169  0.59941873  0.55816889    -0.00600
H971        H  0.02763247  0.56260348  0.52819063     0.13200
H972        H  0.45845823  0.55750863  0.50066484     0.13300
N973        N  0.16415354  0.94988835  0.54388962    -0.03100
C974        C  0.19744222  0.95854692  0.57348469    -0.00500
C975        C  0.18700989  0.92147675  0.59802681    -0.23300
C976        C  0.14896243  0.88950321  0.58365873    -0.23600
C977        C  0.13383909  0.90697863  0.55226588    -0.00600
H978        H  0.20605959  0.91688237  0.62327108     0.13200
H979        H  0.13250622  0.85756208  0.59823109     0.13300
N980        N  0.32877000  0.56498875  0.42609421    -0.03100
C981        C  0.29766986  0.55095919  0.39314130    -0.00500
C982        C  0.30862079  0.58497864  0.36354679    -0.23300
C983        C  0.34323685  0.62052981  0.37924094    -0.23600
C984        C  0.35789582  0.60781087  0.41538174    -0.00600
H985        H  0.29111630  0.58534804  0.33427662     0.13200
H986        H  0.35868691  0.65145899  0.36227586     0.13300
O987        O  0.32185859  0.51027432  0.47666595    -0.81400
C988        C  0.33461530  0.55232363  0.66203548     0.98000
O989        O  0.32264541  0.56685478  0.62958561    -0.70500
O990        O  0.39362275  0.59741838  0.57764343    -0.74100
Al991      Al  0.32870973  0.56412189  0.56663099     1.49000
C992        C  0.41758035  0.58991756  0.55139802     0.93200
O993        O  0.39648847  0.00288278  0.56434888    -0.80300
O994        O  0.27163780  0.93110772  0.56952825    -0.73900
Al995      Al  0.35783830  0.50551706  0.52279299     1.90100
O996        O  0.35051717  0.95699081  0.61196976    -0.72900
O997        O  0.26133630  0.99048366  0.61499943    -0.72800
O998        O  0.34112725  0.02040488  0.65614323    -0.78400
O999        O  0.26458103  0.52885499  0.55632335    -0.76600
O1000       O  0.33090556  0.51493556  0.56628492    -1.12800
O1001       O  0.33413377  0.57359895  0.50287717    -0.72000
C1002       C  0.32609067  0.54782289  0.47021410     0.98700
C1003       C  0.38576606  0.97131481  0.59055659     0.95100
Al1004     Al  0.30771551  0.97749032  0.61021724     1.55600
O1005       O  0.39923615  0.56654096  0.51745317    -0.76600
C1006       C  0.24250732  0.99583967  0.58142916     0.99300
C1007       C  0.28744068  0.91486756  0.54274102     0.94200
O1008       O  0.32179743  0.94074947  0.52137807    -0.81900
O1009       O  0.09331041  0.95240793  0.45017708    -0.81400
C1010       C  0.25189740  0.51361438  0.38817751     0.98000
O1011       O  0.22903180  0.98264882  0.41544652    -0.70500
O1012       O  0.15754310  0.94149383  0.46766346    -0.74100
Al1013     Al  0.16394549  0.94929087  0.40469039     1.49000
C1014       C  0.16647738  0.96757762  0.50009145     0.93200
O1015       O  0.17867895  0.57768422  0.44464466    -0.80300
O1016       O  0.15342766  0.56460531  0.35827978    -0.73900
Al1017     Al  0.13826049  0.51252315  0.44518426     1.90100
O1018       O  0.22859280  0.57792297  0.40225463    -0.72900
O1019       O  0.15468840  0.49556517  0.31891073    -0.72800
O1020       O  0.23264871  0.51774736  0.35465622    -0.78400
O1021       O  0.16993490  0.94502231  0.34166690    -0.76600
O1022       O  0.16467631  0.49991876  0.40400320    -1.12800
O1023       O  0.09896300  0.91850725  0.39245798    -0.72000
C1024       C  0.07519541  0.92848154  0.41623440     0.98700
C1025       C  0.21459990  0.59902329  0.42358618     0.95100
Al1026     Al  0.19089574  0.53662278  0.36090078     1.55600
O1027       O  0.17110142  0.00536752  0.49371757    -0.76600
C1028       C  0.15852509  0.96221390  0.31143541     0.99300
C1029       C  0.11649081  0.55042471  0.37660458     0.94200
O1030       O  0.10284347  0.51750110  0.40148855    -0.81900
N1031       N  0.49739981  0.90089561  0.37372232    -0.03100
C1032       C  0.46723096  0.91358234  0.38344070    -0.00500
C1033       C  0.48031066  0.94092969  0.41933219    -0.23300
C1034       C  0.01632491  0.94242240  0.43525984    -0.23600
C1035       C  0.02888139  0.91959518  0.40710707    -0.00600
H1036       H  0.46388306  0.95639476  0.43468343     0.13200
H1037       H  0.03338036  0.96143553  0.46392426     0.13300
N1038       N  0.15403879  0.94709833  0.26732594    -0.03100
C1039       C  0.18975903  0.95565144  0.24184959    -0.00500
C1040       C  0.18369541  0.96759238  0.20107841    -0.23300
C1041       C  0.14668416  0.97008464  0.20229666    -0.23600
C1042       C  0.12686837  0.95393968  0.24040835    -0.00600
H1043       H  0.20536711  0.97512587  0.17409708     0.13200
H1044       H  0.12817843  0.97321833  0.17633318     0.13300
N1045       N  0.00020809  0.90320380  0.09227046    -0.03100
C1046       C  0.46752324  0.89015996  0.06014347    -0.00500
C1047       C  0.47751560  0.92522283  0.03269303    -0.23300
C1048       C  0.01178872  0.96039608  0.04874563    -0.23600
C1049       C  0.02868889  0.94684616  0.08212232    -0.00600
H1050       H  0.45981282  0.92647219  0.00420697     0.13200
H1051       H  0.02643566  0.99133801  0.03189629     0.13300
N1052       N  0.33006268  0.78281389  0.20435711    -0.03100
C1053       C  0.36024265  0.79371737  0.23795006    -0.00500
C1054       C  0.34826021  0.75784692  0.26492980    -0.23300
C1055       C  0.31355046  0.72395620  0.24701537    -0.23600
C1056       C  0.30017613  0.73965581  0.21217344    -0.00600
H1057       H  0.36445455  0.75551359  0.29441629     0.13200
H1058       H  0.29659564  0.69225232  0.26232666     0.13300
O1059       O  0.05878551  0.83507480  0.24192717    -0.81400
C1060       C  0.40519056  0.83072766  0.24613190     0.98000
O1061       O  0.42335242  0.82597703  0.28053489    -0.70500
O1062       O  0.43396476  0.77193647  0.23024264    -0.74100
Al1063     Al  0.46778737  0.81018027  0.27572239     1.49000
C1064       C  0.44912372  0.75268844  0.20740843     0.93200
O1065       O  0.99831606  0.84975196  0.14293632    -0.80300
O1066       O  0.05168414  0.93044415  0.24919195    -0.73900
Al1067     Al  0.02640716  0.84045950  0.19528873     1.90100
O1068       O  0.00188509  0.90903626  0.17021624    -0.72900
O1069       O  0.48417408  0.89848656  0.29770321    -0.72800
O1070       O  0.42844546  0.86203950  0.21977932    -0.78400
O1071       O  0.50111314  0.85018809  0.32399154    -0.76600
O1072       O  0.99523516  0.84924067  0.23436213    -1.12800
O1073       O  0.00608922  0.78290394  0.27742437    -0.72000
C1074       C  0.04377415  0.79890027  0.26043526     0.98700
C1075       C  0.99868999  0.88563717  0.13673165     0.95100
Al1076     Al  0.49165144  0.89734346  0.23383392     1.55600
O1077       O  0.98661771  0.77539781  0.18961079    -0.76600
C1078       C  0.49670769  0.88359763  0.32994620     0.99300
C1079       C  0.08042845  0.92395616  0.23175218     0.94200
O1080       O  0.07080731  0.89872247  0.19806840    -0.81900
N1081       N  0.05922710  0.84675130  0.75758506    -0.03100
C1082       C  0.07175742  0.81632692  0.74807014    -0.00500
C1083       C  0.10104118  0.83040021  0.71340431    -0.23300
C1084       C  0.10254263  0.86619929  0.69708889    -0.23600
C1085       C  0.07872012  0.87800575  0.72468762    -0.00600
H1086       H  0.11621890  0.81374407  0.69767699     0.13200
H1087       H  0.12171586  0.88331692  0.66836653     0.13300
N1088       N  0.10840288  0.51131866  0.87075589    -0.03100
C1089       C  0.09537143  0.54138118  0.88007766    -0.00500
C1090       C  0.06589467  0.52677605  0.91434580    -0.23300
C1091       C  0.06497859  0.99140733  0.93108325    -0.23600
C1092       C  0.08902946  0.97980893  0.90370442    -0.00600
H1093       H  0.05030412  0.54289919  0.92974746     0.13200
H1094       H  0.04647062  0.97471081  0.96039611     0.13300
O1095       O  0.10914376  0.94147326  0.68212068    -0.81400
C1096       C  0.17266509  0.60024438  0.74232985     0.98000
O1097       O  0.14024107  0.57638206  0.71719273    -0.70500
O1098       O  0.09723372  0.50416347  0.66675105    -0.74100
Al1099     Al  0.10730666  0.51124865  0.72992520     1.49000
C1100       C  0.12250278  0.01287467  0.63349416     0.93200
O1101       O  0.23422015  0.52511208  0.68461804    -0.80300
O1102       O  0.22237442  0.50020691  0.77282520    -0.73900
Al1103     Al  0.16927792  0.98555792  0.68618709     1.90100
O1104       O  0.23565787  0.57462500  0.72828808    -0.72900
O1105       O  0.15577961  0.50426329  0.81938188    -0.72800
O1106       O  0.17759208  0.58175508  0.77648471    -0.78400
O1107       O  0.10515323  0.51771237  0.79392052    -0.76600
O1108       O  0.15762378  0.51163171  0.72922925    -1.12800
O1109       O  0.07719487  0.94673245  0.74201465    -0.72000
C1110       C  0.08630100  0.92337322  0.71652405     0.98700
C1111       C  0.25612515  0.56087878  0.70538147     0.95100
Al1112     Al  0.19546213  0.53849971  0.77157419     1.55600
O1113       O  0.16089148  0.01872023  0.63896513    -0.76600
C1114       C  0.12264798  0.50870768  0.82633386     0.99300
C1115       C  0.20917006  0.96415218  0.75284477     0.94200
O1116       O  0.17568987  0.95000056  0.72870111    -0.81900
N1117       N  0.38622292  0.50754262  0.36857228    -0.03100
C1118       C  0.37203172  0.97633126  0.40142849    -0.00500
C1119       C  0.40590393  0.98715660  0.43120349    -0.23300
C1120       C  0.44157127  0.52182034  0.41567182    -0.23600
C1121       C  0.42903008  0.53659986  0.37947063    -0.00600
H1122       H  0.40611799  0.96956049  0.46050626     0.13200
H1123       H  0.47243833  0.53724073  0.43278700     0.13300
N1124       N  0.27064364  0.84337375  0.25039831    -0.03100
C1125       C  0.27936321  0.87688006  0.22106913    -0.00500
C1126       C  0.24222339  0.86679074  0.19681923    -0.23300
C1127       C  0.21010887  0.82876788  0.21122013    -0.23600
C1128       C  0.22760518  0.81328071  0.24221956    -0.00600
H1129       H  0.23774235  0.88596449  0.17162122     0.13200
H1130       H  0.17815242  0.81247231  0.19670128     0.13300
N1131       N  0.05835924  0.84468807  0.03937526    -0.03100
C1132       C  0.04431935  0.81390082  0.07313486    -0.00500
C1133       C  0.07686524  0.82787935  0.10480015    -0.23300
C1134       C  0.11059437  0.86606104  0.09213397    -0.23600
C1135       C  0.09929002  0.87706500  0.05243186    -0.00600
H1136       H  0.07713724  0.81073538  0.13413181     0.13200
H1137       H  0.13950923  0.88486241  0.11193891     0.13300
N1138       N  0.44198904  0.68187807  0.92317849    -0.03100
C1139       C  0.45551334  0.71313142  0.89009306    -0.00500
C1140       C  0.42104913  0.70189502  0.86131669    -0.23300
C1141       C  0.38587522  0.66680230  0.87710348    -0.23600
C1142       C  0.39926460  0.65230049  0.91277350    -0.00600
H1143       H  0.42029936  0.71944048  0.83245984     0.13200
H1144       H  0.35466608  0.65102192  0.86062818     0.13300
N1145       N  0.39024941  0.51334298  0.08896574    -0.03100
C1146       C  0.40383016  0.98373596  0.07965003    -0.00500
C1147       C  0.43277413  0.99835148  0.04507662    -0.23300
C1148       C  0.43319151  0.53361813  0.02857260    -0.23600
C1149       C  0.40925435  0.54507683  0.05622803    -0.00600
H1150       H  0.44908103  0.98276230  0.03000103     0.13200
H1151       H  0.45218746  0.55100182  0.99992642     0.13300
N1152       N  0.43940503  0.67463957  0.20424560    -0.03100
C1153       C  0.42655145  0.70450156  0.21492049    -0.00500
C1154       C  0.39831788  0.69001445  0.25032734    -0.23300
C1155       C  0.39763602  0.65454033  0.26585152    -0.23600
C1156       C  0.42064839  0.64286771  0.23693429    -0.00600
H1157       H  0.38311172  0.70595792  0.26699658     0.13200
H1158       H  0.37883480  0.63720377  0.29468647     0.13300
O1159       O  0.44125753  0.60975938  0.01454997    -0.81400
C1160       C  0.00799362  0.76716982  0.07908276     0.98000
O1161       O  0.47570119  0.74443836  0.05337243    -0.70500
O1162       O  0.43250872  0.67459771  0.99992455    -0.74100
Al1163     Al  0.44130098  0.67955314  0.06384336     1.49000
C1164       C  0.45881258  0.68387255  0.96735536     0.93200
O1165       O  0.06744313  0.69135318  0.01921978    -0.80300
O1166       O  0.05367643  0.66370441  0.10567868    -0.73900
Al1167     Al  0.00202509  0.65281346  0.01982201     1.90100
O1168       O  0.06900866  0.74026368  0.06389221    -0.72900
O1169       O  0.98755228  0.66853384  0.15301450    -0.72800
O1170       O  0.01289666  0.74791040  0.11253756    -0.78400
O1171       O  0.43852796  0.68451630  0.12782359    -0.76600
O1172       O  0.99079390  0.67854466  0.06329790    -1.12800
O1173       O  0.40929332  0.61462347  0.07446232    -0.72000
C1174       C  0.41779303  0.59112440  0.04858248     0.98700
C1175       C  0.08934216  0.72722391  0.03988315     0.95100
Al1176     Al  0.02839474  0.70345857  0.10614189     1.55600
O1177       O  0.49644675  0.68836758  0.97376287    -0.76600
C1178       C  0.45475538  0.67362910  0.15991748     0.99300
C1179       C  0.03919157  0.62784507  0.08497050     0.94200
O1180       O  0.00578209  0.61526503  0.06131514    -0.81900
O1181       O  0.32402707  0.57549277  0.23041348    -0.81400
C1182       C  0.31696866  0.92176445  0.21301649     0.98000
O1183       O  0.31184978  0.94072309  0.17941470    -0.70500
O1184       O  0.25224652  0.95081627  0.22480566    -0.74100
Al1185     Al  0.29882265  0.98706092  0.18432649     1.49000
C1186       C  0.23588562  0.96641700  0.25166779     0.93200
O1187       O  0.33143303  0.50068228  0.31805954    -0.80300
O1188       O  0.41869796  0.57274469  0.21711384    -0.73900
Al1189     Al  0.32659744  0.53671470  0.27193420     1.90100
O1190       O  0.39484863  0.51310961  0.29174651    -0.72900
O1191       O  0.38822828  0.00196711  0.16493996    -0.72800
O1192       O  0.34995472  0.94367901  0.23817834    -0.78400
O1193       O  0.34191533  0.02075222  0.13864148    -0.76600
O1194       O  0.33614378  0.51000924  0.22836944    -1.12800
O1195       O  0.27827352  0.52974859  0.18266846    -0.72000
C1196       C  0.29247394  0.56483525  0.20421383     0.98700
C1197       C  0.36906539  0.50501453  0.32446462     0.95100
Al1198     Al  0.38536869  0.50782617  0.22796969     1.55600
O1199       O  0.26171449  0.50059964  0.27323902    -0.76600
C1200       C  0.37375747  0.01414658  0.13259929     0.99300
C1201       C  0.41111933  0.59654838  0.24347735     0.94200
O1202       O  0.38762016  0.57805676  0.27735737    -0.81900
O1203       O  0.00401037  0.83730400  0.98828873    -0.81400
C1204       C  0.04528392  0.85018864  0.80192394     0.98000
O1205       O  0.06214080  0.84057995  0.83446552    -0.70500
O1206       O  0.09067819  0.91090896  0.88721804    -0.74100
Al1207     Al  0.05930941  0.84623399  0.89847490     1.49000
C1208       C  0.08149164  0.93430625  0.91246423     0.93200
O1209       O  0.49374242  0.90938891  0.90044265    -0.80300
O1210       O  0.43089519  0.78473762  0.89748067    -0.73900
Al1211     Al  0.99789493  0.87238052  0.94207425     1.90100
O1212       O  0.44617937  0.86088753  0.85606139    -0.72900
O1213       O  0.48868665  0.77789763  0.84953893    -0.72800
O1214       O  0.51304887  0.85628133  0.80874046    -0.78400
O1215       O  0.02519649  0.78143373  0.90932610    -0.76600
O1216       O  0.00945058  0.84674627  0.89871170    -1.12800
O1217       O  0.06832867  0.85193566  0.96255466    -0.72000
C1218       C  0.04183219  0.84235850  0.99497563     0.98700
C1219       C  0.45980728  0.89613824  0.87771283     0.95100
Al1220     Al  0.47207024  0.82163565  0.85555340     1.55600
O1221       O  0.05834347  0.91596079  0.94678919    -0.76600
C1222       C  0.49315006  0.75876485  0.88329489     0.99300
C1223       C  0.41062708  0.79767506  0.92180207     0.94200
O1224       O  0.43259179  0.83328845  0.94287006    -0.81900
N1225       N  0.22241115  0.67639953  0.42063313    -0.03100
C1226       C  0.23509767  0.64623487  0.41091116    -0.00500
C1227       C  0.26246549  0.65935676  0.37495375    -0.23300
C1228       C  0.26381465  0.69526801  0.35889943    -0.23600
C1229       C  0.24099116  0.70779792  0.38710510    -0.00600
H1230       H  0.27792364  0.64295135  0.35954128     0.13200
H1231       H  0.28272293  0.71226448  0.33010846     0.13300
N1232       N  0.26865934  0.83325212  0.52711538    -0.03100
C1233       C  0.27568929  0.80627428  0.55410594    -0.00500
C1234       C  0.29151631  0.82607345  0.59227296    -0.23300
C1235       C  0.28854890  0.86278489  0.59345915    -0.23600
C1236       C  0.27678469  0.86882552  0.55256341    -0.00600
H1237       H  0.29438865  0.80756070  0.61842251     0.13200
H1238       H  0.29561917  0.88421311  0.62057774     0.13300
O1239       O  0.27356776  0.77216907  0.34383474    -0.81400
C1240       C  0.33469720  0.93054267  0.40607397     0.98000
O1241       O  0.30379234  0.90779239  0.37873290    -0.70500
O1242       O  0.26242367  0.83628874  0.32660744    -0.74100
Al1243     Al  0.27036182  0.84266355  0.38951037     1.49000
C1244       C  0.28845121  0.84540419  0.29406262     0.93200
O1245       O  0.39883285  0.85766455  0.34916301    -0.80300
O1246       O  0.38564164  0.83206677  0.43567334    -0.73900
Al1247     Al  0.33369092  0.81720996  0.34866123     1.90100
O1248       O  0.39897325  0.90731697  0.39173450    -0.72900
O1249       O  0.31662039  0.83329877  0.47515464    -0.72800
O1250       O  0.33878110  0.91117279  0.43949227    -0.78400
O1251       O  0.26608523  0.84863934  0.45261413    -0.76600
O1252       O  0.32101187  0.84339574  0.39004294    -1.12800
O1253       O  0.23967354  0.77770641  0.40171653    -0.72000
C1254       C  0.24971273  0.75402602  0.37788501     0.98700
C1255       C  0.42013188  0.89338241  0.37044544     0.95100
Al1256     Al  0.35769398  0.86952679  0.43312354     1.55600
O1257       O  0.32632276  0.85011205  0.30022401    -0.76600
C1258       C  0.28344697  0.83741963  0.48285023     0.99300
C1259       C  0.37159663  0.79522913  0.41728392     0.94200
O1260       O  0.33894027  0.78171734  0.39204672    -0.81900
N1261       N  0.22386888  0.67931618  0.70239537    -0.03100
C1262       C  0.21050079  0.64637404  0.73433928    -0.00500
C1263       C  0.24526447  0.65640491  0.76225826    -0.23300
C1264       C  0.28053407  0.69109214  0.74687847    -0.23600
C1265       C  0.26734498  0.70791649  0.71313533    -0.00600
H1266       H  0.24631435  0.63843816  0.79058643     0.13200
H1267       H  0.31140757  0.70572254  0.76394086     0.13300
N1268       N  0.10370953  0.50911521  0.58997522    -0.03100
C1269       C  0.06061900  0.97927304  0.58169701    -0.00500
C1270       C  0.04532375  0.99285273  0.54669608    -0.23300
C1271       C  0.07938745  0.52781717  0.52928198    -0.23600
C1272       C  0.11499395  0.53962607  0.55658901    -0.00600
H1273       H  0.01379138  0.97602548  0.53106795     0.13200
H1274       H  0.07732505  0.54427551  0.49988653     0.13300
O1275       O  0.15691661  0.73857414  0.55224115    -0.81400
C1276       C  0.15214048  0.58464320  0.54863679     0.98000
O1277       O  0.14759584  0.60290798  0.51421090    -0.70500
O1278       O  0.09353911  0.61373898  0.56457925    -0.74100
Al1279     Al  0.13183584  0.64738193  0.51888695     1.49000
C1280       C  0.07420044  0.62892321  0.58726136     0.93200
O1281       O  0.17096096  0.67792989  0.65143694    -0.80300
O1282       O  0.25222684  0.73113012  0.54536850    -0.73900
Al1283     Al  0.16203796  0.70612961  0.59904683     1.90100
O1284       O  0.23036437  0.68134632  0.62448050    -0.72900
O1285       O  0.22021265  0.66359394  0.49683405    -0.72800
O1286       O  0.18337922  0.60785064  0.57504414    -0.78400
O1287       O  0.17185111  0.68042186  0.47043161    -0.76600
O1288       O  0.17087848  0.67487402  0.56012428    -1.12800
O1289       O  0.10467935  0.68580652  0.51700091    -0.72000
C1290       C  0.12069404  0.72352398  0.53384188     0.98700
C1291       C  0.20673834  0.67812750  0.65782796     0.95100
Al1292     Al  0.21891313  0.67111247  0.56081077     1.55600
O1293       O  0.09686466  0.66652968  0.60472672    -0.76600
C1294       C  0.20521922  0.67590495  0.46447288     0.99300
C1295       C  0.24574082  0.75986739  0.56277250     0.94200
O1296       O  0.22036416  0.75025944  0.59637784    -0.81900
N1297       N  0.55274343  0.23341392  0.53764758    -0.03100
C1298       C  0.54084248  0.25187041  0.57175726    -0.00500
C1299       C  0.57647197  0.27433442  0.59956420    -0.23300
C1300       C  0.61072483  0.27317078  0.58202475    -0.23600
C1301       C  0.59535544  0.24538992  0.54645708    -0.00600
H1302       H  0.57867235  0.29288527  0.62893544     0.13200
H1303       H  0.64334046  0.28901189  0.59586892     0.13300
N1304       N  0.93820035  0.28299626  0.42516640    -0.03100
C1305       C  0.95031533  0.26300725  0.39277537    -0.00500
C1306       C  0.91469275  0.23819517  0.36590409    -0.23300
C1307       C  0.88015168  0.23881123  0.38246932    -0.23600
C1308       C  0.89506843  0.26965332  0.41549067    -0.00600
H1309       H  0.91281318  0.21899315  0.33728589     0.13200
H1310       H  0.84874472  0.22318942  0.36647710     0.13300
O1311       O  0.56543817  0.34849968  0.56650525    -0.81400
C1312       C  0.91561536  0.34930912  0.55365904     0.98000
O1313       O  0.93809583  0.35329248  0.51907276    -0.70500
O1314       O  0.50220120  0.41059525  0.56733936    -0.74100
Al1315     Al  0.49867308  0.37065590  0.52411311     1.49000
C1316       C  0.53623465  0.43129959  0.59012212     0.93200
O1317       O  0.48575621  0.33957003  0.65672884    -0.80300
O1318       O  0.97114902  0.25191071  0.55567074    -0.73900
Al1319     Al  0.52564087  0.34481146  0.60945829     1.90100
O1320       O  0.93565216  0.27546740  0.63146692    -0.72900
O1321       O  0.92894039  0.28027709  0.50258582    -0.69200
O1322       O  0.90685913  0.31717750  0.57926697    -0.78400
O1323       O  0.99280896  0.33044032  0.47647302    -0.76600
O1324       O  0.98769892  0.33306993  0.56682714    -1.12800
O1325       O  0.56406457  0.39716266  0.52358350    -0.72000
C1326       C  0.58584909  0.38263967  0.54389932     0.98700
C1327       C  0.95278034  0.30224424  0.66371653     0.95100
Al1328     Al  0.93784951  0.28335134  0.56726318     1.55600
O1329       O  0.55135393  0.40986936  0.60994096    -0.76600
C1330       C  0.95513481  0.29750356  0.46976154     0.99300
C1331       C  0.50378583  0.26080350  0.58061256     0.94200
O1332       O  0.50923685  0.28438252  0.61472072    -0.81900
N1333       N  0.60680348  0.11752276  0.08640768    -0.03100
C1334       C  0.61979009  0.09965113  0.05266294    -0.00500
C1335       C  0.58430809  0.07559713  0.02541620    -0.23300
C1336       C  0.54945740  0.07552752  0.04248279    -0.23600
C1337       C  0.56380085  0.10414631  0.07731532    -0.00600
H1338       H  0.58270391  0.05698765  0.99655139     0.13200
H1339       H  0.51791564  0.06001857  0.02688597     0.13300
N1340       N  0.72582181  0.07651452  0.19693213    -0.03100
C1341       C  0.70804189  0.08652825  0.23328459    -0.00500
C1342       C  0.73970834  0.10500209  0.26583792    -0.23300
C1343       C  0.77734552  0.11095286  0.24956968    -0.23600
C1344       C  0.76799671  0.08896750  0.20989847    -0.00600
H1345       H  0.73714942  0.11728900  0.29775098     0.13200
H1346       H  0.80715942  0.12447038  0.26869303     0.13300
O1347       O  0.72694618  0.50653194  0.10501638    -0.81400
C1348       C  0.65845755  0.09341006  0.04273396     0.98000
O1349       O  0.69253007  0.10470810  0.06638846    -0.70500
O1350       O  0.73861075  0.07982484  0.11949688    -0.74100
Al1351     Al  0.72709113  0.07427968  0.05496173     1.49000
C1352       C  0.71101338  0.06433900  0.15108132     0.93200
O1353       O  0.60185958  0.46057942  0.10221780    -0.80300
O1354       O  0.61291574  0.44484308  0.01547674    -0.73900
Al1355     Al  0.66692441  0.48917376  0.09854033     1.90100
O1356       O  0.59579386  0.50447180  0.05664127    -0.72900
O1357       O  0.67824874  0.01610258  0.96736170    -0.72800
O1358       O  0.65341273  0.06995308  0.00859955    -0.78400
O1359       O  0.72789461  0.08088628  0.99208986    -0.76600
O1360       O  0.67698613  0.02390965  0.05540813    -1.12800
O1361       O  0.75868572  0.04010054  0.04435907    -0.72000
C1362       C  0.74966737  0.00899266  0.07184610     0.98700
C1363       C  0.57778259  0.47247521  0.08304493     0.95100
Al1364     Al  0.63781322  0.00994640  0.01417729     1.55600
O1365       O  0.67282224  0.03414192  0.14176889    -0.76600
C1366       C  0.71084395  0.05380380  0.96043049     0.99300
C1367       C  0.62692611  0.42372572  0.03777638     0.94200
O1368       O  0.66202940  0.44533360  0.05891401    -0.81900
O1369       O  0.73140568  0.18149185  0.22657269    -0.81400
C1370       C  0.58153506  0.18250445  0.21377809     0.98000
O1371       O  0.60508622  0.18799959  0.17957883    -0.70500
O1372       O  0.66941632  0.24486532  0.22711398    -0.74100
Al1373     Al  0.66564161  0.20471488  0.18463798     1.49000
C1374       C  0.70337880  0.26518310  0.24999013     0.93200
O1375       O  0.65151223  0.17200228  0.31788661    -0.80300
O1376       O  0.63832460  0.08609082  0.21532842    -0.73900
Al1377     Al  0.69167458  0.17805354  0.27001124     1.90100
O1378       O  0.60147036  0.10805670  0.29198137    -0.72900
O1379       O  0.59640789  0.11459427  0.16314629    -0.72800
O1380       O  0.57276541  0.14996119  0.23883526    -0.78400
O1381       O  0.66050583  0.16470027  0.13769989    -0.76600
O1382       O  0.65399021  0.16691482  0.22750388    -1.12800
O1383       O  0.73078910  0.23068071  0.18400572    -0.72000
C1384       C  0.75218737  0.21551949  0.20380417     0.98700
C1385       C  0.61873514  0.13422210  0.32474633     0.95100
Al1386     Al  0.60438439  0.11691094  0.22729683     1.55600
O1387       O  0.71787288  0.24338071  0.27034379    -0.76600
C1388       C  0.62319279  0.13170837  0.13084120     0.99300
C1389       C  0.67047364  0.09489627  0.24087801     0.94200
O1390       O  0.67468397  0.11767581  0.27524153    -0.81900
N1391       N  0.60441314  0.11719629  0.36939132    -0.03100
C1392       C  0.59114597  0.07409568  0.37909349    -0.00500
C1393       C  0.56054929  0.05918472  0.41243842    -0.23300
C1394       C  0.55988874  0.09366673  0.42901839    -0.23600
C1395       C  0.58453923  0.12925150  0.40196375    -0.00600
H1396       H  0.54492055  0.02772771  0.42838714     0.13200
H1397       H  0.54064623  0.09172946  0.45766548     0.13300
N1398       N  0.55386641  0.23111268  0.25673139    -0.03100
C1399       C  0.56579945  0.27370587  0.24797390    -0.00500
C1400       C  0.59379354  0.28927072  0.21254500    -0.23300
C1401       C  0.59509918  0.25516928  0.19495100    -0.23600
C1402       C  0.57252215  0.21943978  0.22264190    -0.00600
H1403       H  0.60979405  0.32197858  0.19891037     0.13200
H1404       H  0.61391379  0.25756811  0.16571345     0.13300
O1405       O  0.98343409  0.23220611  0.34992080    -0.81400
C1406       C  0.57686268  0.16710926  0.41061333     0.98000
O1407       O  0.58584303  0.19961844  0.38550652    -0.70500
O1408       O  0.55683767  0.24081301  0.33333137    -0.74100
Al1409     Al  0.55425560  0.23293679  0.39720873     1.49000
C1410       C  0.53967373  0.21422497  0.30101385     0.93200
O1411       O  0.94015816  0.10708822  0.35381016    -0.80300
O1412       O  0.92837687  0.11898120  0.44138317    -0.73900
Al1413     Al  0.96629477  0.17171751  0.35513563     1.90100
O1414       O  0.98853054  0.10452750  0.39635931    -0.72900
O1415       O  0.49867415  0.18530471  0.48707191    -0.72800
O1416       O  0.55362844  0.16226648  0.44477443    -0.78400
O1417       O  0.56236026  0.23574791  0.46103462    -0.76600
O1418       O  0.00428952  0.18297809  0.39737907    -1.12800
O1419       O  0.52092345  0.26454997  0.40895196    -0.72000
C1420       C  0.98830683  0.25548272  0.38399980     0.98700
C1421       C  0.95465915  0.08482178  0.37282877     0.95100
Al1422     Al  0.99309446  0.14513570  0.43982798     1.55600
O1423       O  0.00623666  0.17710078  0.30770181    -0.76600
C1424       C  0.53580779  0.21881356  0.49348127     0.99300
C1425       C  0.90611193  0.13345374  0.42228894     0.94200
O1426       O  0.92590651  0.16736255  0.39882376    -0.81900
N1427       N  0.77508853  0.45638938  0.03666281    -0.03100
C1428       C  0.75596126  0.46995602  0.06766585    -0.00500
C1429       C  0.73103474  0.43528940  0.09599956    -0.23300
C1430       C  0.73194100  0.40004336  0.08146168    -0.23600
C1431       C  0.76142595  0.41345015  0.04715225    -0.00600
H1432       H  0.71163495  0.43426220  0.12404465     0.13200
H1433       H  0.71612964  0.36886776  0.09808713     0.13300
N1434       N  0.72514158  0.07021371  0.91646769    -0.03100
C1435       C  0.74433387  0.05754230  0.88439684    -0.00500
C1436       C  0.76798737  0.09240417  0.85620103    -0.23300
C1437       C  0.76640658  0.12697026  0.87143527    -0.23600
C1438       C  0.73818098  0.11290427  0.90666296    -0.00600
H1439       H  0.78800507  0.09394720  0.82869223     0.13200
H1440       H  0.78230138  0.15854386  0.85590000     0.13300
O1441       O  0.90428476  0.02123607  0.90031659    -0.81400
C1442       C  0.75363513  0.02069301  0.87930429     0.98000
O1443       O  0.77816238  0.02552031  0.84646502    -0.70500
O1444       O  0.84148979  0.08379150  0.89509475    -0.74100
Al1445     Al  0.83810621  0.04233469  0.85384778     1.49000
C1446       C  0.87434396  0.10402870  0.91971908     0.93200
O1447       O  0.82087943  0.01152161  0.98622425    -0.80300
O1448       O  0.80965953  0.42404262  0.88824786    -0.73900
Al1449     Al  0.86239892  0.01737323  0.94116882     1.90100
O1450       O  0.77188282  0.44703891  0.96047812    -0.72900
O1451       O  0.76805563  0.45193047  0.83381647    -0.72800
O1452       O  0.74431682  0.48902790  0.90596636    -0.78400
O1453       O  0.83268829  0.00123122  0.80844192    -0.76600
O1454       O  0.82569824  0.00527606  0.89737465    -1.12800
O1455       O  0.90291434  0.06807208  0.85452262    -0.72000
C1456       C  0.92459607  0.05410985  0.87572031     0.98700
C1457       C  0.78894994  0.47333206  0.99275755     0.95100
Al1458     Al  0.77576364  0.45531335  0.89714572     1.55600
O1459       O  0.88813436  0.08221184  0.94094925    -0.76600
C1460       C  0.79462722  0.46911096  0.80171354     0.99300
C1461       C  0.84116911  0.43316081  0.91502313     0.94200
O1462       O  0.84564697  0.45732376  0.94807491    -0.81900
N1463       N  0.93860927  0.28583806  0.70821458    -0.03100
C1464       C  0.92092807  0.29884895  0.74214931    -0.00500
C1465       C  0.89698037  0.26341350  0.76958133    -0.23300
C1466       C  0.89679575  0.22857132  0.75245340    -0.23600
C1467       C  0.92521383  0.24286041  0.71737175    -0.00600
H1468       H  0.87849410  0.26182268  0.79860405     0.13200
H1469       H  0.88124125  0.19702360  0.76804252     0.13300
N1470       N  0.89765483  0.40486187  0.59790694    -0.03100
C1471       C  0.90793166  0.38728229  0.56159085    -0.00500
C1472       C  0.92684157  0.41919794  0.52927823    -0.23300
C1473       C  0.93264602  0.45672399  0.54565603    -0.23600
C1474       C  0.91019469  0.44708487  0.58511777    -0.00600
H1475       H  0.93926854  0.41680044  0.49736938     0.13200
H1476       H  0.94615210  0.48655912  0.52654680     0.13300
N1477       N  0.77800663  0.45506722  0.75775424    -0.03100
C1478       C  0.73507803  0.44138708  0.74710731    -0.00500
C1479       C  0.72163357  0.41174268  0.71306830    -0.23300
C1480       C  0.75674644  0.41039771  0.69893398    -0.23600
C1481       C  0.79144447  0.43543814  0.72714715    -0.00600
H1482       H  0.69039617  0.39574455  0.69661214     0.13200
H1483       H  0.75554192  0.39058199  0.67125845     0.13300
N1484       N  0.89093146  0.40446956  0.87821858    -0.03100
C1485       C  0.93364372  0.41756900  0.88813477    -0.00500
C1486       C  0.94775573  0.44627819  0.92290254    -0.23300
C1487       C  0.91317710  0.44811015  0.93779441    -0.23600
C1488       C  0.87828927  0.42416083  0.90981086    -0.00600
H1489       H  0.97933179  0.46226183  0.93845258     0.13200
H1490       H  0.91466882  0.46835943  0.96499481     0.13300
O1491       O  0.82785980  0.40621142  0.68979972    -0.81400
C1492       C  0.91455890  0.33740393  0.75200980     0.98000
O1493       O  0.92588716  0.37147785  0.72835000    -0.70500
O1494       O  0.90112319  0.41756586  0.67529574    -0.74100
Al1495     Al  0.89549166  0.40605318  0.73979500     1.49000
C1496       C  0.88551355  0.39001826  0.64374645     0.93200
O1497       O  0.78143517  0.28107445  0.69254781    -0.80300
O1498       O  0.76585584  0.29186194  0.77917874    -0.73900
Al1499     Al  0.81024211  0.34612494  0.69626047     1.90100
O1500       O  0.82565691  0.27497724  0.73759460    -0.72900
O1501       O  0.83709876  0.35695447  0.82745838    -0.72800
O1502       O  0.89099601  0.33228413  0.78610488    -0.78400
O1503       O  0.90190898  0.40674353  0.80266295    -0.76600
O1504       O  0.84500560  0.35604458  0.73935725    -1.12800
O1505       O  0.86148279  0.43782278  0.75040887    -0.72000
C1506       C  0.83039771  0.42894195  0.72297267     0.98700
C1507       C  0.79337903  0.25695934  0.71155570     0.95100
Al1508     Al  0.83099991  0.31671786  0.78043922     1.55600
O1509       O  0.85518955  0.35190874  0.65307820    -0.76600
C1510       C  0.87470200  0.38975286  0.83430553     0.99300
C1511       C  0.74468399  0.30593383  0.75704872     0.94200
O1512       O  0.76629113  0.34115477  0.73599058    -0.81900
N1513       N  0.66558858  0.23729586  0.75566987    -0.03100
C1514       C  0.63467813  0.22314472  0.72202847    -0.00500
C1515       C  0.64869247  0.25558311  0.69016584    -0.23300
C1516       C  0.68698215  0.28932047  0.70261390    -0.23600
C1517       C  0.69800804  0.27816439  0.74238511    -0.00600
H1518       H  0.63153543  0.25577581  0.66079843     0.13200
H1519       H  0.70581241  0.31817896  0.68267807     0.13300
N1520       N  0.00245699  0.12141253  0.87200040    -0.03100
C1521       C  0.53398673  0.13464880  0.90477491    -0.00500
C1522       C  0.52282165  0.10002093  0.93335889    -0.23300
C1523       C  0.98753207  0.06504798  0.91770897    -0.23600
C1524       C  0.97286127  0.07874037  0.88244192    -0.00600
H1525       H  0.54041631  0.09905447  0.96208222     0.13200
H1526       H  0.97175311  0.03382439  0.93410301     0.13300
O1527       O  0.92979987  0.12003118  0.78017937    -0.81400
C1528       C  0.58787102  0.18674021  0.71615685     0.98000
O1529       O  0.56495859  0.15453850  0.74197201    -0.70500
O1530       O  0.99492461  0.11162465  0.79532533    -0.74100
Al1531     Al  0.99996757  0.12010395  0.73133439     1.49000
C1532       C  0.00410045  0.13802294  0.82775630     0.93200
O1533       O  0.01135846  0.24611479  0.77509526    -0.80300
O1534       O  0.98473452  0.23273197  0.68885646    -0.73900
Al1535     Al  0.97280478  0.18073887  0.77459602     1.90100
O1536       O  0.56088463  0.24761037  0.73125244    -0.72900
O1537       O  0.48960414  0.16659808  0.64183362    -0.72800
O1538       O  0.56869645  0.19151641  0.68258362    -0.78400
O1539       O  0.00504632  0.11725260  0.66726784    -0.76600
O1540       O  0.99898800  0.16954425  0.73155412    -1.12800
O1541       O  0.93495359  0.08796702  0.72060535    -0.72000
C1542       C  0.91128866  0.09647214  0.74626052     0.98700
C1543       C  0.54763518  0.26794499  0.75499496     0.95100
Al1544     Al  0.52433239  0.20722177  0.68874839     1.55600
O1545       O  0.00804266  0.17540293  0.82120180    -0.76600
C1546       C  0.49450785  0.13369744  0.63504964     0.99300
C1547       C  0.94855976  0.21800645  0.70911957     0.94200
O1548       O  0.93560830  0.18422348  0.73228238    -0.81900
O1549       O  0.73060053  0.17350107  0.89568598    -0.81400
C1550       C  0.57960521  0.17230464  0.91170023     0.98000
O1551       O  0.59865701  0.16775545  0.94544919    -0.70500
O1552       O  0.60570473  0.11014699  0.89703349    -0.74100
Al1553     Al  0.64231978  0.15105507  0.93941506     1.49000
C1554       C  0.61898808  0.08989829  0.87309298     0.93200
O1555       O  0.65892465  0.18324223  0.80680772    -0.80300
O1556       O  0.73198320  0.26996033  0.90781252    -0.73900
Al1557     Al  0.69380952  0.17732717  0.85333092     1.90100
O1558       O  0.67281002  0.24734153  0.83246594    -0.72900
O1559       O  0.66166154  0.24120356  0.96062660    -0.72800
O1560       O  0.60237143  0.20445050  0.88578360    -0.78400
O1561       O  0.67679576  0.19171935  0.98641387    -0.76600
O1562       O  0.66773183  0.18866337  0.89641309    -1.12800
O1563       O  0.68150691  0.12513641  0.93905210    -0.72000
C1564       C  0.71709464  0.13918268  0.91785683     0.98700
C1565       C  0.66347717  0.22086654  0.80009622     0.95100
Al1566     Al  0.66721881  0.23847895  0.89660868     1.55600
O1567       O  0.65494930  0.11194376  0.85250139    -0.76600
C1568       C  0.67117593  0.22423681  0.99315266     0.99300
C1569       C  0.75543682  0.26088547  0.88251211     0.94200
O1570       O  0.73708425  0.23776596  0.84830120    -0.81900
N1571       N  0.66804743  0.23839241  0.03745831    -0.03100
C1572       C  0.63771238  0.25102704  0.04704570    -0.00500
C1573       C  0.65175798  0.28003826  0.08186449    -0.23300
C1574       C  0.68741725  0.28124764  0.09820056    -0.23600
C1575       C  0.69928037  0.25761520  0.07040500    -0.00600
H1576       H  0.63518574  0.29530643  0.09758676     0.13200
H1577       H  0.70448202  0.30023139  0.12700846     0.13300
N1578       N  0.83232614  0.28744002  0.92405553    -0.03100
C1579       C  0.86213088  0.27403154  0.91499329    -0.00500
C1580       C  0.84742025  0.24447120  0.88086653    -0.23300
C1581       C  0.81230847  0.24396889  0.86394867    -0.23600
C1582       C  0.80085789  0.26821554  0.89117933    -0.00600
H1583       H  0.86347371  0.22880288  0.86548581     0.13200
H1584       H  0.79565735  0.22563800  0.83460636     0.13300
O1585       O  0.76298673  0.28841214  0.11261920    -0.81400
C1586       C  0.92157178  0.35233361  0.05184833     0.98000
O1587       O  0.89779722  0.31981408  0.07693571    -0.70500
O1588       O  0.82581103  0.27671231  0.12760524    -0.74100
Al1589     Al  0.83276301  0.28682514  0.06450834     1.49000
C1590       C  0.83443097  0.30187589  0.16086407     0.93200
O1591       O  0.84634041  0.41361272  0.10979816    -0.80300
O1592       O  0.82077176  0.40132446  0.02157332    -0.73900
Al1593     Al  0.80696437  0.34859887  0.10843877     1.90100
O1594       O  0.89568800  0.41528196  0.06564794    -0.72900
O1595       O  0.82528704  0.33498954  0.97509862    -0.72800
O1596       O  0.90311391  0.35738563  0.01771469    -0.78400
O1597       O  0.83916695  0.28471392  0.00071503    -0.76600
O1598       O  0.83295255  0.33705643  0.06519124    -1.12800
O1599       O  0.76821604  0.25653214  0.05268283    -0.72000
C1600       C  0.74482297  0.26549574  0.07830537     0.98700
C1601       C  0.88195782  0.43564183  0.08871381     0.95100
Al1602     Al  0.85952078  0.37486921  0.02267813     1.55600
O1603       O  0.84046754  0.34032217  0.15537203    -0.76600
C1604       C  0.82987714  0.30194365  0.96831557     0.99300
C1605       C  0.78476271  0.38801736  0.04181779     0.94200
O1606       O  0.77102385  0.35483109  0.06636553    -0.81900
N1607       N  0.83366211  0.06890824  0.70556972    -0.03100
C1608       C  0.80420842  0.08282008  0.71438504    -0.00500
C1609       C  0.81880500  0.11203987  0.74864609    -0.23300
C1610       C  0.85381295  0.11222578  0.76558943    -0.23600
C1611       C  0.86527478  0.08800678  0.73835118    -0.00600
H1612       H  0.80322378  0.12851481  0.76337209     0.13200
H1613       H  0.87101827  0.13120763  0.79427836     0.13300
N1614       N  0.99576571  0.11853366  0.59071249    -0.03100
C1615       C  0.52591848  0.10603341  0.58002088    -0.00500
C1616       C  0.51149094  0.07761447  0.54483230    -0.23300
C1617       C  0.97574099  0.07644137  0.52941825    -0.23600
C1618       C  0.96391165  0.09941850  0.55816892    -0.00600
H1619       H  0.52763284  0.06260410  0.52819029     0.13200
H1620       H  0.95845807  0.05750800  0.50066512     0.13300
N1621       N  0.66415344  0.44988908  0.54389003    -0.03100
C1622       C  0.69744252  0.45854718  0.57348438    -0.00500
C1623       C  0.68701032  0.42147690  0.59802617    -0.23300
C1624       C  0.64896241  0.38950373  0.58365873    -0.23600
C1625       C  0.63383888  0.40697945  0.55226642    -0.00600
H1626       H  0.70606023  0.41688230  0.62327010     0.13200
H1627       H  0.63250613  0.35756262  0.59823116     0.13300
N1628       N  0.82876995  0.06498936  0.42609449    -0.03100
C1629       C  0.79767011  0.05095963  0.39314129    -0.00500
C1630       C  0.80862109  0.08497907  0.36354678    -0.23300
C1631       C  0.84323689  0.12053036  0.37924121    -0.23600
C1632       C  0.85789573  0.10781152  0.41538221    -0.00600
H1633       H  0.79111673  0.08534837  0.33427643     0.13200
H1634       H  0.85868696  0.15145955  0.36227612     0.13300
O1635       O  0.82185795  0.01027462  0.47666593    -0.81400
C1636       C  0.83461528  0.05232305  0.66203544     0.98000
O1637       O  0.82264552  0.06685439  0.62958567    -0.70500
O1638       O  0.89362273  0.09741805  0.57764349    -0.74100
Al1639     Al  0.82870970  0.06412178  0.56663115     1.49000
C1640       C  0.91758028  0.08991726  0.55139801     0.93200
O1641       O  0.89648871  0.50288330  0.56434974    -0.80300
O1642       O  0.77163787  0.43110803  0.56952833    -0.73900
Al1643     Al  0.85783773  0.00551685  0.52279242     1.90100
O1644       O  0.85051712  0.45699105  0.61197017    -0.72900
O1645       O  0.76133634  0.49048408  0.61499943    -0.72800
O1646       O  0.84112715  0.52040527  0.65614329    -0.78400
O1647       O  0.76458093  0.02885510  0.55632363    -0.76600
O1648       O  0.83090533  0.01493534  0.56628471    -1.12800
O1649       O  0.83413373  0.07359929  0.50287747    -0.72000
C1650       C  0.82609042  0.04782334  0.47021429     0.98700
C1651       C  0.88576611  0.47131509  0.59055720     0.95100
Al1652     Al  0.80771548  0.47749065  0.61021738     1.55600
O1653       O  0.89923604  0.06654076  0.51745305    -0.76600
C1654       C  0.74250745  0.49584005  0.58142906     0.99300
C1655       C  0.78744085  0.41486780  0.54274135     0.94200
O1656       O  0.82179783  0.44074965  0.52137869    -0.81900
O1657       O  0.59330983  0.45240779  0.45017762    -0.81400
C1658       C  0.75189776  0.01361474  0.38817727     0.98000
O1659       O  0.72903115  0.48264863  0.41544705    -0.70500
O1660       O  0.65754273  0.44149412  0.46766402    -0.74100
Al1661     Al  0.66394478  0.44929065  0.40469094     1.49000
C1662       C  0.66647701  0.46757809  0.50009185     0.93200
O1663       O  0.67867886  0.07768436  0.44464417    -0.80300
O1664       O  0.65342788  0.06460535  0.35827916    -0.73900
Al1665     Al  0.63826055  0.01252326  0.44518367     1.90100
O1666       O  0.72859295  0.07792331  0.40225435    -0.72900
O1667       O  0.65468915  0.99556567  0.31891007    -0.72800
O1668       O  0.73264917  0.01774771  0.35465589    -0.78400
O1669       O  0.66993392  0.44502185  0.34166735    -0.76600
O1670       O  0.66467660  0.99991900  0.40400267    -1.12800
O1671       O  0.59896235  0.41850695  0.39245868    -0.72000
C1672       C  0.57519484  0.42848139  0.41623499     0.98700
C1673       C  0.71459983  0.09902353  0.42358576     0.95100
Al1674     Al  0.69089615  0.03662309  0.36090031     1.55600
O1675       O  0.67110063  0.50536782  0.49371782    -0.76600
C1676       C  0.65852437  0.46221360  0.31143576     0.99300
C1677       C  0.61649096  0.05042469  0.37660386     0.94200
O1678       O  0.60284360  0.01750107  0.40148784    -0.81900
N1679       N  0.99739964  0.40089578  0.37372277    -0.03100
C1680       C  0.96723085  0.41358260  0.38344115    -0.00500
C1681       C  0.98031049  0.44092977  0.41933281    -0.23300
C1682       C  0.51632457  0.44242242  0.43526044    -0.23600
C1683       C  0.52888100  0.41959524  0.40710752    -0.00600
H1684       H  0.96388294  0.45639473  0.43468415     0.13200
H1685       H  0.53337983  0.46143529  0.46392488     0.13300
N1686       N  0.65403854  0.44709841  0.26732619    -0.03100
C1687       C  0.68975904  0.45565202  0.24185002    -0.00500
C1688       C  0.68369555  0.46759310  0.20107886    -0.23300
C1689       C  0.64668411  0.47008502  0.20229691    -0.23600
C1690       C  0.62686823  0.45393981  0.24040851    -0.00600
H1691       H  0.70536721  0.47512644  0.17409755     0.13200
H1692       H  0.62817843  0.47321871  0.17633341     0.13300
N1693       N  0.50020828  0.40320376  0.09227082    -0.03100
C1694       C  0.96752316  0.39015973  0.06014405    -0.00500
C1695       C  0.97751549  0.42522272  0.03269377    -0.23300
C1696       C  0.51178853  0.46039648  0.04874703    -0.23600
C1697       C  0.52868900  0.44684627  0.08212316    -0.00600
H1698       H  0.95981284  0.42647213  0.00420762     0.13200
H1699       H  0.52643543  0.49133854  0.03189789     0.13300
N1700       N  0.83006275  0.28281395  0.20435739    -0.03100
C1701       C  0.86024262  0.29371741  0.23795045    -0.00500
C1702       C  0.84826006  0.25784693  0.26493019    -0.23300
C1703       C  0.81355033  0.22395626  0.24701572    -0.23600
C1704       C  0.80017616  0.23965592  0.21217371    -0.00600
H1705       H  0.86445434  0.25551356  0.29441680     0.13200
H1706       H  0.79659543  0.19225234  0.26232696     0.13300
O1707       O  0.55878574  0.33507527  0.24192784    -0.81400
C1708       C  0.90519047  0.33072772  0.24613237     0.98000
O1709       O  0.92335232  0.32597703  0.28053534    -0.70500
O1710       O  0.93396467  0.27193638  0.23024325    -0.74100
Al1711     Al  0.96778729  0.31018033  0.27572295     1.49000
C1712       C  0.94912362  0.25268837  0.20740903     0.93200
O1713       O  0.49831611  0.34975202  0.14293690    -0.80300
O1714       O  0.55168407  0.43044452  0.24919228    -0.73900
Al1715     Al  0.52640728  0.34045980  0.19528931     1.90100
O1716       O  0.50188488  0.40903629  0.17021659    -0.72900
O1717       O  0.98417396  0.39848666  0.29770365    -0.72800
O1718       O  0.92844538  0.36203962  0.21977984    -0.78400
O1719       O  0.00111295  0.35018819  0.32399207    -0.76600
O1720       O  0.49523519  0.34924092  0.23436268    -1.12800
O1721       O  0.50608949  0.28290429  0.27742499    -0.72000
C1722       C  0.54377445  0.29890071  0.26043586     0.98700
C1723       C  0.49868991  0.38563714  0.13673207     0.95100
Al1724     Al  0.99165141  0.39734350  0.23383442     1.55600
O1725       O  0.48661803  0.27539812  0.18961142    -0.76600
C1726       C  0.99670754  0.38359777  0.32994666     0.99300
C1727       C  0.58042831  0.42395648  0.23175241     0.94200
O1728       O  0.57080711  0.39872282  0.19806865    -0.81900
N1729       N  0.55922708  0.34675154  0.75758503    -0.03100
C1730       C  0.57175763  0.31632726  0.74807034    -0.00500
C1731       C  0.60104186  0.33040083  0.71340497    -0.23300
C1732       C  0.60254357  0.36620002  0.69708949    -0.23600
C1733       C  0.57872061  0.37800619  0.72468791    -0.00600
H1734       H  0.61621973  0.31374466  0.69767775     0.13200
H1735       H  0.62171698  0.38331772  0.66836740     0.13300
N1736       N  0.60840271  0.01131858  0.87075543    -0.03100
C1737       C  0.59537157  0.04138132  0.88007741    -0.00500
C1738       C  0.56589516  0.02677642  0.91434579    -0.23300
C1739       C  0.56497840  0.49140721  0.93108304    -0.23600
C1740       C  0.58902945  0.47980887  0.90370448    -0.00600
H1741       H  0.55030471  0.04289970  0.92974747     0.13200
H1742       H  0.54647032  0.47471065  0.96039601     0.13300
O1743       O  0.60914377  0.44147360  0.68212070    -0.81400
C1744       C  0.67266525  0.10024432  0.74232942     0.98000
O1745       O  0.64024113  0.07638214  0.71719230    -0.70500
O1746       O  0.59723371  0.00416350  0.66675055    -0.74100
Al1747     Al  0.60730658  0.01124868  0.72992472     1.49000
C1748       C  0.62250240  0.51287514  0.63349458     0.93200
O1749       O  0.73422017  0.02511180  0.68461758    -0.80300
O1750       O  0.72237409  0.00020632  0.77282489    -0.73900
Al1751     Al  0.66927800  0.48555862  0.68618686     1.90100
O1752       O  0.73565797  0.07462464  0.72828775    -0.72900
O1753       O  0.65577930  0.00426305  0.81938140    -0.72800
O1754       O  0.67759212  0.08175490  0.77648426    -0.78400
O1755       O  0.60515308  0.01771241  0.79392004    -0.76600
O1756       O  0.65762368  0.01163155  0.72922887    -1.12800
O1757       O  0.57719497  0.44673255  0.74201495    -0.72000
C1758       C  0.58630116  0.42337349  0.71652418     0.98700
C1759       C  0.75612523  0.06087838  0.70538116     0.95100
Al1760     Al  0.69546202  0.03849939  0.77157382     1.55600
O1761       O  0.66089125  0.51872112  0.63896541    -0.76600
C1762       C  0.62264774  0.00870759  0.82633338     0.99300
C1763       C  0.70917060  0.46415289  0.75284430     0.94200
O1764       O  0.67569053  0.45000123  0.72870042    -0.81900
N1765       N  0.88622226  0.00754275  0.36857242    -0.03100
C1766       C  0.87203179  0.47633120  0.40142880    -0.00500
C1767       C  0.90590418  0.48715652  0.43120351    -0.23300
C1768       C  0.94157076  0.02182042  0.41567167    -0.23600
C1769       C  0.92902941  0.03660012  0.37947078    -0.00600
H1770       H  0.90611825  0.46956044  0.46050642     0.13200
H1771       H  0.97243792  0.03724074  0.43278672     0.13300
N1772       N  0.77064337  0.34337388  0.25039869    -0.03100
C1773       C  0.77936290  0.37688007  0.22106934    -0.00500
C1774       C  0.74222316  0.36679063  0.19681928    -0.23300
C1775       C  0.71010864  0.32876784  0.21122026    -0.23600
C1776       C  0.72760493  0.31328079  0.24221986    -0.00600
H1777       H  0.73774212  0.38596437  0.17162126     0.13200
H1778       H  0.67815227  0.31247223  0.19670129     0.13300
N1779       N  0.55835964  0.34468790  0.03937490    -0.03100
C1780       C  0.54431931  0.31390086  0.07313476    -0.00500
C1781       C  0.57686507  0.32787939  0.10480018    -0.23300
C1782       C  0.61059457  0.36606068  0.09213376    -0.23600
C1783       C  0.59929052  0.37706464  0.05243148    -0.00600
H1784       H  0.57713679  0.31073552  0.13413214     0.13200
H1785       H  0.63950951  0.38486197  0.11193871     0.13300
N1786       N  0.94198955  0.18187810  0.92317844    -0.03100
C1787       C  0.95551395  0.21313146  0.89009298    -0.00500
C1788       C  0.92104989  0.20189503  0.86131645    -0.23300
C1789       C  0.88587588  0.16680234  0.87710313    -0.23600
C1790       C  0.89926520  0.15230048  0.91277320    -0.00600
H1791       H  0.92030015  0.21944054  0.83245966     0.13200
H1792       H  0.85466693  0.15102218  0.86062784     0.13300
N1793       N  0.89024998  0.01334312  0.08896579    -0.03100
C1794       C  0.90382966  0.48373568  0.07965026    -0.00500
C1795       C  0.93277380  0.49835131  0.04507706    -0.23300
C1796       C  0.93319154  0.03361804  0.02857225    -0.23600
C1797       C  0.90925451  0.04507677  0.05622785    -0.00600
H1798       H  0.94908092  0.48276216  0.03000162     0.13200
H1799       H  0.95218734  0.05100169  0.99992605     0.13300
N1800       N  0.93940491  0.17463955  0.20424590    -0.03100
C1801       C  0.92655138  0.20450152  0.21492100    -0.00500
C1802       C  0.89831797  0.19001448  0.25032802    -0.23300
C1803       C  0.89763631  0.15454047  0.26585214    -0.23600
C1804       C  0.92064853  0.14286783  0.23693473    -0.00600
H1805       H  0.88311174  0.20595784  0.26699732     0.13200
H1806       H  0.87883513  0.13720388  0.29468713     0.13300
O1807       O  0.94125786  0.10975944  0.01455000    -0.81400
C1808       C  0.50799354  0.26716989  0.07908263     0.98000
O1809       O  0.97570126  0.24443834  0.05337257    -0.70500
O1810       O  0.93250879  0.17459757  0.99992450    -0.74100
Al1811     Al  0.94130102  0.17955306  0.06384343     1.49000
C1812       C  0.95881282  0.18387255  0.96735544     0.93200
O1813       O  0.56744321  0.19135359  0.01921942    -0.80300
O1814       O  0.55367638  0.16370449  0.10567840    -0.73900
Al1815     Al  0.50202522  0.15281381  0.01982163     1.90100
O1816       O  0.56900894  0.24026394  0.06389225    -0.72900
O1817       O  0.48755212  0.16853386  0.15301421    -0.72800
O1818       O  0.51289662  0.24791045  0.11253739    -0.78400
O1819       O  0.93852779  0.18451609  0.12782374    -0.76600
O1820       O  0.49079399  0.17854483  0.06329764    -1.12800
O1821       O  0.90929356  0.11462345  0.07446232    -0.72000
C1822       C  0.91779331  0.09112441  0.04858245     0.98700
C1823       C  0.58934234  0.22722415  0.03988301     0.95100
Al1824     Al  0.52839474  0.20345866  0.10614170     1.55600
O1825       O  0.99644700  0.18836768  0.97376319    -0.76600
C1826       C  0.95475520  0.17362896  0.15991772     0.99300
C1827       C  0.53919178  0.12784533  0.08496994     0.94200
O1828       O  0.50578239  0.11526532  0.06131443    -0.81900
O1829       O  0.82402719  0.07549287  0.23041287    -0.81400
C1830       C  0.81696820  0.42176451  0.21301675     0.98000
O1831       O  0.81184926  0.44072314  0.17941499    -0.70500
O1832       O  0.75224631  0.45081640  0.22480623    -0.74100
Al1833     Al  0.79882234  0.48706103  0.18432689     1.49000
C1834       C  0.73588553  0.46641730  0.25166831     0.93200
O1835       O  0.83143256  0.00068234  0.31805942    -0.80300
O1836       O  0.91869829  0.07274494  0.21711430    -0.73900
Al1837     Al  0.82659731  0.03671481  0.27193389     1.90100
O1838       O  0.89484832  0.01310968  0.29174677    -0.72900
O1839       O  0.88822786  0.50196708  0.16494010    -0.72800
O1840       O  0.84995428  0.44367906  0.23817854    -0.78400
O1841       O  0.84191489  0.52075216  0.13864161    -0.76600
O1842       O  0.83614404  0.01000947  0.22836927    -1.12800
O1843       O  0.77827371  0.02974865  0.18266783    -0.72000
C1844       C  0.79247407  0.06483533  0.20421318     0.98700
C1845       C  0.86906491  0.00501455  0.32446471     0.95100
Al1846     Al  0.88536898  0.00782642  0.22796989     1.55600
O1847       O  0.76171439  0.00059977  0.27323835    -0.76600
C1848       C  0.87375701  0.51414647  0.13259941     0.99300
C1849       C  0.91111934  0.09654850  0.24347766     0.94200
O1850       O  0.88761993  0.07805678  0.27735750    -0.81900
O1851       O  0.50401058  0.33730353  0.98828850    -0.81400
C1852       C  0.54528363  0.35018873  0.80192382     0.98000
O1853       O  0.56214039  0.34057995  0.83446539    -0.70500
O1854       O  0.59067797  0.41090890  0.88721778    -0.74100
Al1855     Al  0.55930926  0.34623398  0.89847461     1.49000
C1856       C  0.58149148  0.43430614  0.91246411     0.93200
O1857       O  0.99374254  0.40938888  0.90044300    -0.80300
O1858       O  0.93089545  0.28473757  0.89748064    -0.73900
Al1859     Al  0.49789474  0.37238012  0.94207436     1.90100
O1860       O  0.94617955  0.36088753  0.85606169    -0.72900
O1861       O  0.98868703  0.27789777  0.84953897    -0.72800
O1862       O  0.01304922  0.35628164  0.80874071    -0.78400
O1863       O  0.52519629  0.28143370  0.90932581    -0.76600
O1864       O  0.50945039  0.34674617  0.89871152    -1.12800
O1865       O  0.56832900  0.35193586  0.96255429    -0.72000
C1866       C  0.54183252  0.34235839  0.99497531     0.98700
C1867       C  0.95980741  0.39613821  0.87771317     0.95100
Al1868     Al  0.97207054  0.32163576  0.85555354     1.55600
O1869       O  0.55834325  0.41596063  0.94678906    -0.76600
C1870       C  0.99315050  0.25876498  0.88329491     0.99300
C1871       C  0.91062730  0.29767489  0.92180216     0.94200
O1872       O  0.93259198  0.33328820  0.94287031    -0.81900
N1873       N  0.72241069  0.17639962  0.42063273    -0.03100
C1874       C  0.73509722  0.14623500  0.41091047    -0.00500
C1875       C  0.76246485  0.15935693  0.37495287    -0.23300
C1876       C  0.76381405  0.19526832  0.35889882    -0.23600
C1877       C  0.74099061  0.20779809  0.38710477    -0.00600
H1878       H  0.77792316  0.14295173  0.35954035     0.13200
H1879       H  0.78272238  0.21226499  0.33010809     0.13300
N1880       N  0.76865907  0.33325226  0.52711575    -0.03100
C1881       C  0.77568926  0.30627449  0.55410615    -0.00500
C1882       C  0.79151674  0.32607369  0.59227303    -0.23300
C1883       C  0.78854945  0.36278521  0.59345949    -0.23600
C1884       C  0.77678479  0.36882573  0.55256382    -0.00600
H1885       H  0.79438961  0.30756102  0.61842248     0.13200
H1886       H  0.79562002  0.38421336  0.62057788     0.13300
O1887       O  0.77356751  0.27216949  0.34383498    -0.81400
C1888       C  0.83469705  0.43054274  0.40607453     0.98000
O1889       O  0.80379220  0.40779253  0.37873341    -0.70500
O1890       O  0.76242334  0.33628912  0.32660785    -0.74100
Al1891     Al  0.77036148  0.34266376  0.38951076     1.49000
C1892       C  0.78845091  0.34540451  0.29406309     0.93200
O1893       O  0.89883263  0.35766475  0.34916363    -0.80300
O1894       O  0.88564116  0.33206662  0.43567399    -0.73900
Al1895     Al  0.83369065  0.31721017  0.34866169     1.90100
O1896       O  0.89897309  0.40731697  0.39173548    -0.72900
O1897       O  0.81661957  0.33329825  0.47515477    -0.72800
O1898       O  0.83878082  0.41117280  0.43949289    -0.78400
O1899       O  0.76608480  0.34863946  0.45261449    -0.76600
O1900       O  0.82101154  0.34339583  0.39004341    -1.12800
O1901       O  0.73967299  0.27770651  0.40171667    -0.72000
C1902       C  0.74971232  0.25402626  0.37788509     0.98700
C1903       C  0.92013169  0.39338255  0.37044616     0.95100
Al1904     Al  0.85769351  0.36952661  0.43312416     1.55600
O1905       O  0.82632247  0.35011240  0.30022463    -0.76600
C1906       C  0.78344642  0.33741954  0.48285051     0.99300
C1907       C  0.87159626  0.29522901  0.41728456     0.94200
O1908       O  0.83894004  0.28171729  0.39204711    -0.81900
N1909       N  0.72386929  0.17931619  0.70239512    -0.03100
C1910       C  0.71050121  0.14637387  0.73433886    -0.00500
C1911       C  0.74526488  0.15640464  0.76225782    -0.23300
C1912       C  0.78053455  0.19109202  0.74687824    -0.23600
C1913       C  0.76734538  0.20791651  0.71313526    -0.00600
H1914       H  0.74631467  0.13843783  0.79058607     0.13200
H1915       H  0.81140792  0.20572243  0.76394064     0.13300
N1916       N  0.60370967  0.00911514  0.58997467    -0.03100
C1917       C  0.56061848  0.47927370  0.58169765    -0.00500
C1918       C  0.54532341  0.49285339  0.54669654    -0.23300
C1919       C  0.57938754  0.02781741  0.52928164    -0.23600
C1920       C  0.61499406  0.03962621  0.55658858    -0.00600
H1921       H  0.51379112  0.47602627  0.53106832     0.13200
H1922       H  0.57732512  0.04427591  0.49988623     0.13300
O1923       O  0.65691681  0.23857475  0.55224171    -0.81400
C1924       C  0.65214058  0.08464345  0.54863645     0.98000
O1925       O  0.64759577  0.10290828  0.51421067    -0.70500
O1926       O  0.59353928  0.11373941  0.56457931    -0.74100
Al1927     Al  0.63183590  0.14738237  0.51888693     1.49000
C1928       C  0.57420062  0.12892367  0.58726135     0.93200
O1929       O  0.67096131  0.17792987  0.65143672    -0.80300
O1930       O  0.75222694  0.23113043  0.54536820    -0.73900
Al1931     Al  0.66203826  0.20612987  0.59904698     1.90100
O1932       O  0.73036481  0.18134666  0.62448017    -0.72900
O1933       O  0.72021253  0.16359409  0.49683368    -0.72800
O1934       O  0.68337934  0.10785092  0.57504377    -0.78400
O1935       O  0.67185101  0.18042217  0.47043156    -0.76600
O1936       O  0.67087864  0.17487439  0.56012413    -1.12800
O1937       O  0.60467970  0.18580724  0.51700106    -0.72000
C1938       C  0.62069431  0.22352462  0.53384227     0.98700
C1939       C  0.70673876  0.17812762  0.65782770     0.95100
Al1940     Al  0.71891326  0.17111275  0.56081042     1.55600
O1941       O  0.59686491  0.16653003  0.60472690    -0.76600
C1942       C  0.70521897  0.17590505  0.46447260     0.99300
C1943       C  0.74574101  0.25986761  0.56277257     0.94200
O1944       O  0.72036455  0.25025954  0.59637807    -0.81900
N1945       N  0.55274269  0.73341244  0.53764723    -0.03100
C1946       C  0.54084162  0.75186858  0.57175711    -0.00500
C1947       C  0.57647115  0.77433252  0.59956404    -0.23300
C1948       C  0.61072407  0.77316903  0.58202447    -0.23600
C1949       C  0.59535471  0.74538833  0.54645667    -0.00600
H1950       H  0.57867161  0.79288350  0.62893525     0.13200
H1951       H  0.64333973  0.78901020  0.59586852     0.13300
N1952       N  0.93820108  0.78299737  0.42516555    -0.03100
C1953       C  0.95031548  0.76300731  0.39277511    -0.00500
C1954       C  0.91469265  0.73819476  0.36590433    -0.23300
C1955       C  0.88015191  0.73881148  0.38246927    -0.23600
C1956       C  0.89506909  0.76965431  0.41548992    -0.00600
H1957       H  0.91281271  0.71899212  0.33728649     0.13200
H1958       H  0.84874491  0.72318955  0.36647720     0.13300
O1959       O  0.56543800  0.84849803  0.56650361    -0.81400
C1960       C  0.91561456  0.84930843  0.55365824     0.98000
O1961       O  0.93809562  0.85329239  0.51907238    -0.70500
O1962       O  0.50220240  0.91059490  0.56733736    -0.74100
Al1963     Al  0.49867320  0.87065470  0.52411161     1.49000
C1964       C  0.53623592  0.93129907  0.59012014     0.93200
O1965       O  0.48575661  0.83956990  0.65672770    -0.80300
O1966       O  0.97114907  0.75191082  0.55566996    -0.73900
Al1967     Al  0.52564104  0.84481055  0.60945698     1.90100
O1968       O  0.93565188  0.77546680  0.63146613    -0.72900
O1969       O  0.92894092  0.78027743  0.50258495    -0.69200
O1970       O  0.90685862  0.81717692  0.57926623    -0.78400
O1971       O  0.99280931  0.83044161  0.47647256    -0.76600
O1972       O  0.98769871  0.83306990  0.56682682    -1.12800
O1973       O  0.56406461  0.89716091  0.52358155    -0.72000
C1974       C  0.58584906  0.88263797  0.54389759     0.98700
C1975       C  0.95278002  0.80224336  0.66371596     0.95100
Al1976     Al  0.93784943  0.78335117  0.56726242     1.55600
O1977       O  0.55135484  0.90986860  0.60993912    -0.76600
C1978       C  0.95513538  0.79750451  0.46976081     0.99300
C1979       C  0.50378523  0.76080217  0.58061205     0.94200
O1980       O  0.50923643  0.78438148  0.61471999    -0.81900
N1981       N  0.60680248  0.61752270  0.08640737    -0.03100
C1982       C  0.61978916  0.59965103  0.05266285    -0.00500
C1983       C  0.58430720  0.57559681  0.02541607    -0.23300
C1984       C  0.54945644  0.57552739  0.04248241    -0.23600
C1985       C  0.56379989  0.60414619  0.07731496    -0.00600
H1986       H  0.58270313  0.55698727  0.99655149     0.13200
H1987       H  0.51791478  0.56001844  0.02688563     0.13300
N1988       N  0.72582237  0.57651609  0.19693252    -0.03100
C1989       C  0.70804201  0.58652943  0.23328481    -0.00500
C1990       C  0.73970804  0.60500301  0.26583857    -0.23300
C1991       C  0.77734549  0.61095372  0.24957094    -0.23600
C1992       C  0.76799714  0.58896886  0.20989939    -0.00600
H1993       H  0.73714853  0.61728954  0.29775163     0.13200
H1994       H  0.80715917  0.62447105  0.26869454     0.13300
O1995       O  0.72694636  0.00653061  0.10501593    -0.81400
C1996       C  0.65845692  0.59341047  0.04273409     0.98000
O1997       O  0.69252945  0.60470883  0.06638877    -0.70500
O1998       O  0.73861111  0.57982626  0.11949716    -0.74100
Al1999     Al  0.72709088  0.57428078  0.05496202     1.49000
C2000       C  0.71101387  0.56434065  0.15108169     0.93200
O2001       O  0.60185984  0.96057776  0.10221700    -0.80300
O2002       O  0.61291563  0.94484243  0.01547635    -0.73900
Al2003     Al  0.66692466  0.98917227  0.09853954     1.90100
O2004       O  0.59579454  0.00447127  0.05664171    -0.72900
O2005       O  0.67824882  0.51610313  0.96736241    -0.72800
O2006       O  0.65341241  0.56995362  0.00859965    -0.78400
O2007       O  0.72789413  0.58088725  0.99209019    -0.76600
O2008       O  0.67698588  0.52391068  0.05540858    -1.12800
O2009       O  0.75868547  0.54010159  0.04435934    -0.72000
C2010       C  0.74966704  0.50899375  0.07184651     0.98700
C2011       C  0.57778306  0.97247409  0.08304467     0.95100
Al2012     Al  0.63781304  0.50994702  0.01417749     1.55600
O2013       O  0.67282249  0.53414406  0.14176921    -0.76600
C2014       C  0.71084375  0.55380442  0.96043105     0.99300
C2015       C  0.62692612  0.92372489  0.03777553     0.94200
O2016       O  0.66202981  0.94533258  0.05891255    -0.81900
O2017       O  0.73140474  0.68149238  0.22657246    -0.81400
C2018       C  0.58153395  0.68250380  0.21377711     0.98000
O2019       O  0.60508515  0.68799905  0.17957790    -0.70500
O2020       O  0.66941527  0.74486560  0.22711294    -0.74100
Al2021     Al  0.66564051  0.70471480  0.18463723     1.49000
C2022       C  0.70337782  0.76518332  0.24998908     0.93200
O2023       O  0.65151069  0.67200201  0.31788608    -0.80300
O2024       O  0.63832431  0.58609109  0.21532798    -0.73900
Al2025     Al  0.69167339  0.67805375  0.27001085     1.90100
O2026       O  0.60146933  0.60805623  0.29198079    -0.72900
O2027       O  0.59640689  0.61459398  0.16314587    -0.72800
O2028       O  0.57276426  0.64996058  0.23883434    -0.78400
O2029       O  0.66050478  0.66470012  0.13769950    -0.76600
O2030       O  0.65398915  0.66691484  0.22750333    -1.12800
O2031       O  0.73078800  0.73068083  0.18400493    -0.72000
C2032       C  0.75218635  0.71551984  0.20380360     0.98700
C2033       C  0.61873390  0.63422162  0.32474580     0.95100
Al2034     Al  0.60438353  0.61691069  0.22729623     1.55600
O2035       O  0.71787142  0.74338079  0.27034326    -0.76600
C2036       C  0.62319179  0.63170822  0.13084082     0.99300
C2037       C  0.67047332  0.59489687  0.24087778     0.94200
O2038       O  0.67468318  0.61767621  0.27524127    -0.81900
N2039       N  0.60441200  0.61719566  0.36939078    -0.03100
C2040       C  0.59114458  0.57409500  0.37909275    -0.00500
C2041       C  0.56054769  0.55918397  0.41243755    -0.23300
C2042       C  0.55988757  0.59366604  0.42901783    -0.23600
C2043       C  0.58453825  0.62925084  0.40196334    -0.00600
H2044       H  0.54491902  0.52772705  0.42838639     0.13200
H2045       H  0.54064524  0.59172882  0.45766510     0.13300
N2046       N  0.55386555  0.73111175  0.25673063    -0.03100
C2047       C  0.56579902  0.77370506  0.24797358    -0.00500
C2048       C  0.59379346  0.78927030  0.21254493    -0.23300
C2049       C  0.59509882  0.75516892  0.19495047    -0.23600
C2050       C  0.57252138  0.71943915  0.22264103    -0.00600
H2051       H  0.60979402  0.82197823  0.19891054     0.13200
H2052       H  0.61391345  0.75756795  0.16571285     0.13300
O2053       O  0.98343392  0.73220582  0.34992066    -0.81400
C2054       C  0.57686196  0.66710864  0.41061295     0.98000
O2055       O  0.58584224  0.69961770  0.38550603    -0.70500
O2056       O  0.55683700  0.74081195  0.33333063    -0.74100
Al2057     Al  0.55425485  0.73293607  0.39720804     1.49000
C2058       C  0.53967293  0.71422393  0.30101308     0.93200
O2059       O  0.94015930  0.60708825  0.35381034    -0.80300
O2060       O  0.92837723  0.61898113  0.44138337    -0.73900
Al2061     Al  0.96629513  0.67171735  0.35513559     1.90100
O2062       O  0.98853130  0.60452766  0.39636032    -0.72900
O2063       O  0.49867336  0.68530369  0.48707149    -0.72800
O2064       O  0.55362776  0.66226592  0.44477402    -0.78400
O2065       O  0.56235928  0.73574727  0.46103415    -0.76600
O2066       O  0.00428991  0.68297835  0.39737905    -1.12800
O2067       O  0.52092271  0.76454932  0.40895083    -0.72000
C2068       C  0.98830684  0.75548264  0.38399955     0.98700
C2069       C  0.95466027  0.58482194  0.37282925     0.95100
Al2070     Al  0.99309500  0.64513626  0.43982829     1.55600
O2071       O  0.00623713  0.67710099  0.30770182    -0.76600
C2072       C  0.53580695  0.71881254  0.49348088     0.99300
C2073       C  0.90611198  0.63345290  0.42228834     0.94200
O2074       O  0.92590649  0.66736190  0.39882347    -0.81900
N2075       N  0.77508812  0.95638824  0.03666126    -0.03100
C2076       C  0.75596168  0.96995504  0.06766507    -0.00500
C2077       C  0.73103534  0.93528830  0.09599861    -0.23300
C2078       C  0.73194082  0.90004213  0.08145997    -0.23600
C2079       C  0.76142539  0.91344892  0.04715025    -0.00600
H2080       H  0.71163569  0.93426081  0.12404394     0.13200
H2081       H  0.71612942  0.86886647  0.09808525     0.13300
N2082       N  0.72514128  0.57021393  0.91646822    -0.03100
C2083       C  0.74433366  0.55754240  0.88439770    -0.00500
C2084       C  0.76798713  0.59240404  0.85620163    -0.23300
C2085       C  0.76640617  0.62697003  0.87143548    -0.23600
C2086       C  0.73818064  0.61290433  0.90666314    -0.00600
H2087       H  0.78800495  0.59394697  0.82869295     0.13200
H2088       H  0.78230111  0.65854371  0.85589998     0.13300
O2089       O  0.90428462  0.52123623  0.90031692    -0.81400
C2090       C  0.75363509  0.52069329  0.87930573     0.98000
O2091       O  0.77816227  0.52552052  0.84646651    -0.70500
O2092       O  0.84148952  0.58379193  0.89509671    -0.74100
Al2093     Al  0.83810602  0.54233523  0.85384924     1.49000
C2094       C  0.87434440  0.60402927  0.91972010     0.93200
O2095       O  0.82088043  0.51152243  0.98622569    -0.80300
O2096       O  0.80965933  0.92404203  0.88824651    -0.73900
Al2097     Al  0.86239942  0.51737379  0.94116979     1.90100
O2098       O  0.77188226  0.94703805  0.96047650    -0.72900
O2099       O  0.76805570  0.95193006  0.83381489    -0.72800
O2100       O  0.74431663  0.98902736  0.90596466    -0.78400
O2101       O  0.83268807  0.50123185  0.80844331    -0.76600
O2102       O  0.82569835  0.50527657  0.89737602    -1.12800
O2103       O  0.90291413  0.56807273  0.85452366    -0.72000
C2104       C  0.92459585  0.55411010  0.87572073     0.98700
C2105       C  0.78894919  0.97333111  0.99275603     0.95100
Al2106     Al  0.77576346  0.95531280  0.89714413     1.55600
O2107       O  0.88813504  0.58221242  0.94094993    -0.76600
C2108       C  0.79462743  0.96911041  0.80171208     0.99300
C2109       C  0.84116877  0.93316013  0.91502194     0.94200
O2110       O  0.84564655  0.95732312  0.94807372    -0.81900
N2111       N  0.93860916  0.78583667  0.70821385    -0.03100
C2112       C  0.92092900  0.79884778  0.74214922    -0.00500
C2113       C  0.89698122  0.76341228  0.76958112    -0.23300
C2114       C  0.89679522  0.72856976  0.75245236    -0.23600
C2115       C  0.92521295  0.74285877  0.71737037    -0.00600
H2116       H  0.87849539  0.76182164  0.79860419     0.13200
H2117       H  0.88124064  0.69702207  0.76804140     0.13300
N2118       N  0.89765397  0.90486083  0.59790589    -0.03100
C2119       C  0.90792982  0.88728094  0.56158949    -0.00500
C2120       C  0.92683909  0.91919636  0.52927654    -0.23300
C2121       C  0.93264425  0.95672268  0.54565447    -0.23600
C2122       C  0.91019377  0.94708389  0.58511678    -0.00600
H2123       H  0.93926553  0.91679862  0.49736747     0.13200
H2124       H  0.94615038  0.98655781  0.52654534     0.13300
N2125       N  0.77800701  0.95506656  0.75775279    -0.03100
C2126       C  0.73507853  0.94138693  0.74710571    -0.00500
C2127       C  0.72163388  0.91174241  0.71306690    -0.23300
C2128       C  0.75674635  0.91039637  0.69893310    -0.23600
C2129       C  0.79144452  0.93543677  0.72714614    -0.00600
H2130       H  0.69039611  0.89574415  0.69661107     0.13200
H2131       H  0.75554153  0.89058011  0.67125792     0.13300
N2132       N  0.89093100  0.90446818  0.87821799    -0.03100
C2133       C  0.93364349  0.91756833  0.88813406    -0.00500
C2134       C  0.94775564  0.94627841  0.92290106    -0.23300
C2135       C  0.91317692  0.94811021  0.93779295    -0.23600
C2136       C  0.87828893  0.92416008  0.90980977    -0.00600
H2137       H  0.97933177  0.96226266  0.93845080     0.13200
H2138       H  0.91466875  0.96835991  0.96499272     0.13300
O2139       O  0.82785982  0.90620982  0.68979885    -0.81400
C2140       C  0.91455979  0.83740265  0.75200941     0.98000
O2141       O  0.92588771  0.87147633  0.72834933    -0.70500
O2142       O  0.90112339  0.91756404  0.67529487    -0.74100
Al2143     Al  0.89549183  0.90605145  0.73979417     1.49000
C2144       C  0.88551319  0.89001680  0.64374535     0.93200
O2145       O  0.78143518  0.78107304  0.69254704    -0.80300
O2146       O  0.76585648  0.79185935  0.77917711    -0.73900
Al2147     Al  0.81024218  0.84612345  0.69625973     1.90100
O2148       O  0.82565866  0.77497624  0.73759163    -0.72900
O2149       O  0.83709882  0.85695144  0.82745794    -0.72800
O2150       O  0.89099675  0.83228275  0.78610424    -0.78400
O2151       O  0.90190856  0.90674165  0.80266233    -0.76600
O2152       O  0.84500598  0.85604292  0.73935630    -1.12800
O2153       O  0.86148284  0.93782110  0.75040787    -0.72000
C2154       C  0.83039774  0.92894036  0.72297173     0.98700
C2155       C  0.79337983  0.75695809  0.71155388     0.95100
Al2156     Al  0.83100063  0.81671573  0.78043778     1.55600
O2157       O  0.85518907  0.85190722  0.65307687    -0.76600
C2158       C  0.87470163  0.88975068  0.83430497     0.99300
C2159       C  0.74468468  0.80593210  0.75704826     0.94200
O2160       O  0.76629181  0.84115337  0.73599065    -0.81900
N2161       N  0.66558899  0.73729497  0.75566961    -0.03100
C2162       C  0.63467845  0.72314416  0.72202844    -0.00500
C2163       C  0.64869292  0.75558250  0.69016579    -0.23300
C2164       C  0.68698288  0.78931951  0.70261360    -0.23600
C2165       C  0.69800871  0.77816325  0.74238477    -0.00600
H2166       H  0.63153572  0.75577541  0.66079849     0.13200
H2167       H  0.70581331  0.81817785  0.68267761     0.13300
N2168       N  0.00245693  0.62141230  0.87200016    -0.03100
C2169       C  0.53398663  0.63464898  0.90477562    -0.00500
C2170       C  0.52282175  0.60002102  0.93335948    -0.23300
C2171       C  0.98753183  0.56504783  0.91770897    -0.23600
C2172       C  0.97286103  0.57874029  0.88244200    -0.00600
H2173       H  0.54041670  0.59905445  0.96208229     0.13200
H2174       H  0.97175263  0.53382430  0.93410328     0.13300
O2175       O  0.92979917  0.62003027  0.78017880    -0.81400
C2176       C  0.58787112  0.68674023  0.71615750     0.98000
O2177       O  0.56495868  0.65453868  0.74197286    -0.70500
O2178       O  0.99492388  0.61162403  0.79532505    -0.74100
Al2179     Al  0.99996674  0.62010312  0.73133391     1.49000
C2180       C  0.00409994  0.63802249  0.82775595     0.93200
O2181       O  0.01135730  0.74611390  0.77509403    -0.80300
O2182       O  0.98473371  0.73273074  0.68885545    -0.73900
Al2183     Al  0.97280393  0.68073793  0.77459510     1.90100
O2184       O  0.56088495  0.74761056  0.73125338    -0.72900
O2185       O  0.48960420  0.66659814  0.64183458    -0.72800
O2186       O  0.56869650  0.69151664  0.68258448    -0.78400
O2187       O  0.00504539  0.61725169  0.66726741    -0.76600
O2188       O  0.99898727  0.66954338  0.73155343    -1.12800
O2189       O  0.93495266  0.58796602  0.72060482    -0.72000
C2190       C  0.91128781  0.59647120  0.74626003     0.98700
C2191       C  0.54763583  0.76794546  0.75499588     0.95100
Al2192     Al  0.52433251  0.70722203  0.68874938     1.55600
O2193       O  0.00804197  0.67540241  0.82120130    -0.76600
C2194       C  0.49450804  0.63369753  0.63505060     0.99300
C2195       C  0.94855880  0.71800489  0.70911824     0.94200
O2196       O  0.93560742  0.68422194  0.73228105    -0.81900
O2197       O  0.73060025  0.67350092  0.89568598    -0.81400
C2198       C  0.57960515  0.67230481  0.91170054     0.98000
O2199       O  0.59865706  0.66775575  0.94544945    -0.70500
O2200       O  0.60570424  0.61014639  0.89703441    -0.74100
Al2201     Al  0.64231970  0.65105504  0.93941522     1.49000
C2202       C  0.61898746  0.58989765  0.87309377     0.93200
O2203       O  0.65892407  0.68324126  0.80680769    -0.80300
O2204       O  0.73198347  0.76995974  0.90781179    -0.73900
Al2205     Al  0.69380905  0.67732643  0.85333082     1.90100
O2206       O  0.67281007  0.74734092  0.83246552    -0.72900
O2207       O  0.66166186  0.74120367  0.96062593    -0.72800
O2208       O  0.60237134  0.70445045  0.88578358    -0.78400
O2209       O  0.67679618  0.69171957  0.98641326    -0.76600
O2210       O  0.66773155  0.68866295  0.89641284    -1.12800
O2211       O  0.68150668  0.62513638  0.93905222    -0.72000
C2212       C  0.71709442  0.63918269  0.91785700     0.98700
C2213       C  0.66347712  0.72086575  0.80009597     0.95100
Al2214     Al  0.66721894  0.73847869  0.89660821     1.55600
O2215       O  0.65494858  0.61194303  0.85250191    -0.76600
C2216       C  0.67117593  0.72423673  0.99315199     0.99300
C2217       C  0.75543688  0.76088473  0.88251120     0.94200
O2218       O  0.73708403  0.73776507  0.84830049    -0.81900
N2219       N  0.66804672  0.73839169  0.03745757    -0.03100
C2220       C  0.63771171  0.75102648  0.04704486    -0.00500
C2221       C  0.65175763  0.78003787  0.08186352    -0.23300
C2222       C  0.68741688  0.78124697  0.09819959    -0.23600
C2223       C  0.69927976  0.75761431  0.07040406    -0.00600
H2224       H  0.63518570  0.79530626  0.09758574     0.13200
H2225       H  0.70448184  0.80023076  0.12700722     0.13300
N2226       N  0.83232635  0.78743926  0.92405419    -0.03100
C2227       C  0.86213117  0.77403087  0.91499198    -0.00500
C2228       C  0.84742055  0.74447055  0.88086522    -0.23300
C2229       C  0.81230853  0.74396808  0.86394743    -0.23600
C2230       C  0.80085802  0.76821478  0.89117813    -0.00600
H2231       H  0.86347388  0.72880191  0.86548485     0.13200
H2232       H  0.79565721  0.72563710  0.83460547     0.13300
O2233       O  0.76298646  0.78841149  0.11261758    -0.81400
C2234       C  0.92157186  0.85233387  0.05184730     0.98000
O2235       O  0.89779731  0.81981430  0.07693467    -0.70500
O2236       O  0.82581081  0.77671219  0.12760394    -0.74100
Al2237     Al  0.83276301  0.78682489  0.06450696     1.49000
C2238       C  0.83443052  0.80187589  0.16086265     0.93200
O2239       O  0.84633965  0.91361221  0.10979597    -0.80300
O2240       O  0.82077135  0.90132369  0.02157123    -0.73900
Al2241     Al  0.80696383  0.84859830  0.10843675     1.90100
O2242       O  0.89568751  0.91528172  0.06564595    -0.72900
O2243       O  0.82528706  0.83498887  0.97509683    -0.72800
O2244       O  0.90311401  0.85738556  0.01771341    -0.78400
O2245       O  0.83916732  0.78471361  0.00071368    -0.76600
O2246       O  0.83295229  0.83705599  0.06518949    -1.12800
O2247       O  0.76821575  0.75653150  0.05268125    -0.72000
C2248       C  0.74482258  0.76549497  0.07830393     0.98700
C2249       C  0.88195734  0.93564143  0.08871207     0.95100
Al2250     Al  0.85952055  0.87486874  0.02267631     1.55600
O2251       O  0.84046703  0.84032212  0.15537032    -0.76600
C2252       C  0.82987741  0.80194309  0.96831407     0.99300
C2253       C  0.78476215  0.88801625  0.04181546     0.94200
O2254       O  0.77102333  0.85482987  0.06636302    -0.81900
N2255       N  0.83366176  0.56890853  0.70556879    -0.03100
C2256       C  0.80420801  0.58282029  0.71438446    -0.00500
C2257       C  0.81880439  0.61203920  0.74864630    -0.23300
C2258       C  0.85381199  0.61222439  0.76558972    -0.23600
C2259       C  0.86527391  0.58800587  0.73835087    -0.00600
H2260       H  0.80322317  0.62851403  0.76337275     0.13200
H2261       H  0.87101722  0.63120571  0.79427879     0.13300
N2262       N  0.99576551  0.61853321  0.59071200    -0.03100
C2263       C  0.52591808  0.60603282  0.58002133    -0.00500
C2264       C  0.51149031  0.57761440  0.54483227    -0.23300
C2265       C  0.97574144  0.57644085  0.52941783    -0.23600
C2266       C  0.96391186  0.59941807  0.55816805    -0.00600
H2267       H  0.52763181  0.56260390  0.52818983     0.13200
H2268       H  0.95845879  0.55750746  0.50066461     0.13300
N2269       N  0.66415305  0.94988811  0.54388959    -0.03100
C2270       C  0.69744138  0.95854685  0.57348526    -0.00500
C2271       C  0.68700894  0.92147659  0.59802721    -0.23300
C2272       C  0.64896194  0.88950282  0.58365839    -0.23600
C2273       C  0.63383882  0.90697817  0.55226524    -0.00600
H2274       H  0.70605865  0.91688214  0.62327130     0.13200
H2275       H  0.63250588  0.85756148  0.59823029     0.13300
N2276       N  0.82876980  0.56498779  0.42609312    -0.03100
C2277       C  0.79766910  0.55095846  0.39314074    -0.00500
C2278       C  0.80862003  0.58497793  0.36354621    -0.23300
C2279       C  0.84323690  0.62052890  0.37923971    -0.23600
C2280       C  0.85789587  0.60780981  0.41538043    -0.00600
H2281       H  0.79111513  0.58534746  0.33427646     0.13200
H2282       H  0.85868688  0.65145814  0.36227491     0.13300
O2283       O  0.82185834  0.51027354  0.47666512    -0.81400
C2284       C  0.83461558  0.55232387  0.66203440     0.98000
O2285       O  0.82264617  0.56685534  0.62958440    -0.70500
O2286       O  0.89362318  0.59741808  0.57764184    -0.74100
Al2287     Al  0.82871028  0.56412196  0.56662972     1.49000
C2288       C  0.91758064  0.58991693  0.55139665     0.93200
O2289       O  0.89648830  0.00288306  0.56434982    -0.80300
O2290       O  0.77163756  0.93110765  0.56952818    -0.73900
Al2291     Al  0.85783812  0.50551639  0.52279198     1.90100
O2292       O  0.85051670  0.95699048  0.61197008    -0.72900
O2293       O  0.76133564  0.99048305  0.61500005    -0.72800
O2294       O  0.84112653  0.02040424  0.65614423    -0.78400
O2295       O  0.76458163  0.52885539  0.55632237    -0.76600
O2296       O  0.83090578  0.51493547  0.56628395    -1.12800
O2297       O  0.83413402  0.57359846  0.50287593    -0.72000
C2298       C  0.82609061  0.54782214  0.47021306     0.98700
C2299       C  0.88576561  0.97131453  0.59055693     0.95100
Al2300     Al  0.80771500  0.97748997  0.61021773     1.55600
O2301       O  0.89923642  0.56654011  0.51745186    -0.76600
C2302       C  0.74250669  0.99583940  0.58142992     0.99300
C2303       C  0.78744067  0.91486777  0.54274085     0.94200
O2304       O  0.82179757  0.94074999  0.52137825    -0.81900
O2305       O  0.59331085  0.95240741  0.45017677    -0.81400
C2306       C  0.75189643  0.51361377  0.38817728     0.98000
O2307       O  0.72903250  0.98264942  0.41544683    -0.70500
O2308       O  0.65754387  0.94149407  0.46766339    -0.74100
Al2309     Al  0.66394632  0.94929106  0.40469036     1.49000
C2310       C  0.66647733  0.96757762  0.50009147     0.93200
O2311       O  0.67867870  0.57768444  0.44464392    -0.80300
O2312       O  0.65342713  0.56460536  0.35827967    -0.73900
Al2313     Al  0.63825996  0.51252353  0.44518410     1.90100
O2314       O  0.72859242  0.57792266  0.40225412    -0.72900
O2315       O  0.65468729  0.49556543  0.31891117    -0.72800
O2316       O  0.73264765  0.51774675  0.35465606    -0.78400
O2317       O  0.66993598  0.94502241  0.34166687    -0.76600
O2318       O  0.66467549  0.49991879  0.40400313    -1.12800
O2319       O  0.59896386  0.91850708  0.39245766    -0.72000
C2320       C  0.57519607  0.92848116  0.41623404     0.98700
C2321       C  0.71459967  0.59902318  0.42358542     0.95100
Al2322     Al  0.69089501  0.53662266  0.36090065     1.55600
O2323       O  0.67110087  0.00536734  0.49371763    -0.76600
C2324       C  0.65852612  0.96221365  0.31143507     0.99300
C2325       C  0.61649010  0.55042457  0.37660416     0.94200
O2326       O  0.60284287  0.51750126  0.40148854    -0.81900
N2327       N  0.99739914  0.90089605  0.37372246    -0.03100
C2328       C  0.96723034  0.91358292  0.38344076    -0.00500
C2329       C  0.98030990  0.94093001  0.41933245    -0.23300
C2330       C  0.51632580  0.94242232  0.43525944    -0.23600
C2331       C  0.52888217  0.91959493  0.40710673    -0.00600
H2332       H  0.96388231  0.95639512  0.43468367     0.13200
H2333       H  0.53338128  0.96143555  0.46392375     0.13300
N2334       N  0.65403924  0.94709715  0.26732577    -0.03100
C2335       C  0.68975900  0.95564882  0.24184922    -0.00500
C2336       C  0.68369519  0.96758880  0.20107765    -0.23300
C2337       C  0.64668443  0.97008176  0.20229564    -0.23600
C2338       C  0.62686882  0.95393809  0.24040770    -0.00600
H2339       H  0.70536697  0.97512216  0.17409620     0.13200
H2340       H  0.62817879  0.97321508  0.17633197     0.13300
N2341       N  0.50020845  0.90320271  0.09227022    -0.03100
C2342       C  0.96752314  0.89016036  0.06014326    -0.00500
C2343       C  0.97751548  0.92522299  0.03269245    -0.23300
C2344       C  0.51178941  0.96039553  0.04874598    -0.23600
C2345       C  0.52868955  0.94684503  0.08212220    -0.00600
H2346       H  0.95981304  0.92647188  0.00420584     0.13200
H2347       H  0.52643646  0.99133761  0.03189700     0.13300
N2348       N  0.83006213  0.78281416  0.20435614    -0.03100
C2349       C  0.86024221  0.79371746  0.23794903    -0.00500
C2350       C  0.84825957  0.75784705  0.26492884    -0.23300
C2351       C  0.81354950  0.72395659  0.24701470    -0.23600
C2352       C  0.80017527  0.73965621  0.21217275    -0.00600
H2353       H  0.86445387  0.75551360  0.29441546     0.13200
H2354       H  0.79659441  0.69225275  0.26232617     0.13300
O2355       O  0.55878491  0.83507393  0.24192723    -0.81400
C2356       C  0.90519015  0.83072768  0.24613108     0.98000
O2357       O  0.92335189  0.82597698  0.28053416    -0.70500
O2358       O  0.93396546  0.77193727  0.23024139    -0.74100
Al2359     Al  0.96778738  0.81018077  0.27572193     1.49000
C2360       C  0.94912486  0.75268931  0.20740768     0.93200
O2361       O  0.49831558  0.84975061  0.14293625    -0.80300
O2362       O  0.55168467  0.93044332  0.24919141    -0.73900
Al2363     Al  0.52640653  0.84045822  0.19528877     1.90100
O2364       O  0.50188489  0.90903513  0.17021597    -0.72900
O2365       O  0.98417313  0.89848659  0.29770331    -0.72800
O2366       O  0.92844519  0.86203960  0.21977868    -0.78400
O2367       O  0.00111250  0.85018840  0.32399168    -0.76600
O2368       O  0.49523493  0.84923986  0.23436217    -1.12800
O2369       O  0.50608883  0.78290303  0.27742444    -0.72000
C2370       C  0.54377375  0.79889952  0.26043531     0.98700
C2371       C  0.49868985  0.88563596  0.13673144     0.95100
Al2372     Al  0.99165109  0.89734397  0.23383400     1.55600
O2373       O  0.48661653  0.77539669  0.18961135    -0.76600
C2374       C  0.99670690  0.88359787  0.32994634     0.99300
C2375       C  0.58042866  0.92395481  0.23175171     0.94200
O2376       O  0.57080704  0.89872094  0.19806799    -0.81900
N2377       N  0.55922743  0.84675183  0.75758519    -0.03100
C2378       C  0.57175814  0.81632766  0.74807068    -0.00500
C2379       C  0.60104160  0.83040077  0.71340463    -0.23300
C2380       C  0.60254227  0.86619924  0.69708853    -0.23600
C2381       C  0.57871989  0.87800589  0.72468717    -0.00600
H2382       H  0.61621945  0.81374457  0.69767742     0.13200
H2383       H  0.62171519  0.88331657  0.66836588     0.13300
N2384       N  0.60840233  0.51131818  0.87075627    -0.03100
C2385       C  0.59537088  0.54138069  0.88007807    -0.00500
C2386       C  0.56589414  0.52677549  0.91434614    -0.23300
C2387       C  0.56497945  0.99140818  0.93108269    -0.23600
C2388       C  0.58903010  0.97980948  0.90370393    -0.00600
H2389       H  0.55030346  0.54289869  0.92974776     0.13200
H2390       H  0.54647145  0.97471181  0.96039575     0.13300
O2391       O  0.60914431  0.94147354  0.68211986    -0.81400
C2392       C  0.67266457  0.60024399  0.74232993     0.98000
O2393       O  0.64024015  0.57638175  0.71719321    -0.70500
O2394       O  0.59723275  0.50416315  0.66675169    -0.74100
Al2395     Al  0.60730588  0.51124834  0.72992580     1.49000
C2396       C  0.62250340  0.01287521  0.63349355     0.93200
O2397       O  0.73421945  0.52511177  0.68461782    -0.80300
O2398       O  0.72237378  0.50020668  0.77282562    -0.73900
Al2399     Al  0.66927861  0.98555857  0.68618620     1.90100
O2400       O  0.73565751  0.57462467  0.72828812    -0.72900
O2401       O  0.65577920  0.50426321  0.81938222    -0.72800
O2402       O  0.67759152  0.58175474  0.77648485    -0.78400
O2403       O  0.60515260  0.51771206  0.79392103    -0.76600
O2404       O  0.65762314  0.51163149  0.72922967    -1.12800
O2405       O  0.57719536  0.94673291  0.74201380    -0.72000
C2406       C  0.58630133  0.92337356  0.71652325     0.98700
C2407       C  0.75612464  0.56087843  0.70538119     0.95100
Al2408     Al  0.69546165  0.53849951  0.77157444     1.55600
O2409       O  0.66089221  0.01872112  0.63896459    -0.76600
C2410       C  0.62264743  0.50870737  0.82633426     0.99300
C2411       C  0.70917095  0.96415259  0.75284339     0.94200
O2412       O  0.67569073  0.95000096  0.72869978    -0.81900
N2413       N  0.88622329  0.50754316  0.36857269    -0.03100
C2414       C  0.87203047  0.97633080  0.40142839    -0.00500
C2415       C  0.90590244  0.98715625  0.43120372    -0.23300
C2416       C  0.94157251  0.52182032  0.41567095    -0.23600
C2417       C  0.92903073  0.53660020  0.37947047    -0.00600
H2418       H  0.90611629  0.96956004  0.46050650     0.13200
H2419       H  0.97243980  0.53724054  0.43278565     0.13300
N2420       N  0.77064335  0.84337365  0.25039727    -0.03100
C2421       C  0.77936378  0.87687992  0.22106771    -0.00500
C2422       C  0.74222443  0.86679083  0.19681716    -0.23300
C2423       C  0.71010931  0.82876832  0.21121798    -0.23600
C2424       C  0.72760483  0.81328094  0.24221806    -0.00600
H2425       H  0.73774411  0.88596483  0.17161876     0.13200
H2426       H  0.67815286  0.81247306  0.19669878     0.13300
N2427       N  0.55835889  0.84468788  0.03937508    -0.03100
C2428       C  0.54431876  0.81390064  0.07313475    -0.00500
C2429       C  0.57686486  0.82787885  0.10479983    -0.23300
C2430       C  0.61059454  0.86605997  0.09213323    -0.23600
C2431       C  0.59929011  0.87706412  0.05243124    -0.00600
H2432       H  0.57713683  0.81073480  0.13413160     0.13200
H2433       H  0.63950981  0.88486083  0.11193768     0.13300
N2434       N  0.94199090  0.68187821  0.92317786    -0.03100
C2435       C  0.95551562  0.71313117  0.89009189    -0.00500
C2436       C  0.92105170  0.70189447  0.86131504    -0.23300
C2437       C  0.88587749  0.66680216  0.87710192    -0.23600
C2438       C  0.89926651  0.65230076  0.91277263    -0.00600
H2439       H  0.92030210  0.71943989  0.83245788     0.13200
H2440       H  0.85466831  0.65102218  0.86062693     0.13300
N2441       N  0.89024938  0.51334304  0.08896607    -0.03100
C2442       C  0.90382974  0.98373549  0.07964926    -0.00500
C2443       C  0.93277323  0.99835102  0.04507540    -0.23300
C2444       C  0.93319217  0.53361813  0.02857344    -0.23600
C2445       C  0.90925456  0.54507680  0.05622825    -0.00600
H2446       H  0.94907990  0.98276180  0.02999937     0.13200
H2447       H  0.95218839  0.55100172  0.99992733     0.13300
N2448       N  0.93940635  0.67464021  0.20424552    -0.03100
C2449       C  0.92655315  0.70450251  0.21492051    -0.00500
C2450       C  0.89832001  0.69001578  0.25032765    -0.23300
C2451       C  0.89763787  0.65454157  0.26585182    -0.23600
C2452       C  0.92064978  0.64286854  0.23693439    -0.00600
H2453       H  0.88311381  0.70595945  0.26699685     0.13200
H2454       H  0.87883650  0.63720508  0.29468662     0.13300
O2455       O  0.94125848  0.60975938  0.01455003    -0.81400
C2456       C  0.50799284  0.76716972  0.07908272     0.98000
O2457       O  0.97570212  0.74443848  0.05337233    -0.70500
O2458       O  0.93251013  0.67459811  0.99992401    -0.74100
Al2459     Al  0.94130186  0.67955331  0.06384306     1.49000
C2460       C  0.95881416  0.68387277  0.96735495     0.93200
O2461       O  0.56744204  0.69135301  0.01921916    -0.80300
O2462       O  0.55367532  0.66370409  0.10567845    -0.73900
Al2463     Al  0.50202405  0.65281345  0.01982169     1.90100
O2464       O  0.56900829  0.74026338  0.06389240    -0.72900
O2465       O  0.48755139  0.66853376  0.15301456    -0.72800
O2466       O  0.51289592  0.74791032  0.11253751    -0.78400
O2467       O  0.93852864  0.68451611  0.12782339    -0.76600
O2468       O  0.49079309  0.67854458  0.06329788    -1.12800
O2469       O  0.90929388  0.61462372  0.07446193    -0.72000
C2470       C  0.91779359  0.59112449  0.04858238     0.98700
C2471       C  0.58934145  0.72722349  0.03988283     0.95100
Al2472     Al  0.52839394  0.70345837  0.10614188     1.55600
O2473       O  0.99644818  0.68836756  0.97376282    -0.76600
C2474       C  0.95475629  0.67362921  0.15991736     0.99300
C2475       C  0.53919070  0.62784498  0.08496989     0.94200
O2476       O  0.50578131  0.61526497  0.06131441    -0.81900
O2477       O  0.82402794  0.57549439  0.23041345    -0.81400
C2478       C  0.81696948  0.92176431  0.21301561     0.98000
O2479       O  0.81185109  0.94072327  0.17941383    -0.70500
O2480       O  0.75224721  0.95081521  0.22480497    -0.74100
Al2481     Al  0.79882321  0.98706049  0.18432610     1.49000
C2482       C  0.73588581  0.96641536  0.25166723     0.93200
O2483       O  0.83143327  0.50068356  0.31806012    -0.80300
O2484       O  0.91869806  0.57274491  0.21711378    -0.73900
Al2485     Al  0.82659793  0.53671606  0.27193436     1.90100
O2486       O  0.89484845  0.51311001  0.29174678    -0.72900
O2487       O  0.88822919  0.00196752  0.16493994    -0.72800
O2488       O  0.84995514  0.94367875  0.23817797    -0.78400
O2489       O  0.84191608  0.02075254  0.13864163    -0.76600
O2490       O  0.83614371  0.51001007  0.22836965    -1.12800
O2491       O  0.77827408  0.52975010  0.18266865    -0.72000
C2492       C  0.79247471  0.56483687  0.20421389     0.98700
C2493       C  0.86906546  0.50501522  0.32446507     0.95100
Al2494     Al  0.88536833  0.50782647  0.22796990     1.55600
O2495       O  0.76171480  0.50060164  0.27323925    -0.76600
C2496       C  0.87375814  0.01414680  0.13259930     0.99300
C2497       C  0.91112001  0.59654896  0.24347735     0.94200
O2498       O  0.88762082  0.57805759  0.27735742    -0.81900
O2499       O  0.50401003  0.83730514  0.98828902    -0.81400
C2500       C  0.54528326  0.85018855  0.80192388     0.98000
O2501       O  0.56213969  0.84057959  0.83446567    -0.70500
O2502       O  0.59067778  0.91090886  0.88721763    -0.74100
Al2503     Al  0.55930844  0.84623385  0.89847491     1.49000
C2504       C  0.58149157  0.93430650  0.91246368     0.93200
O2505       O  0.99374227  0.90938831  0.90044364    -0.80300
O2506       O  0.93089593  0.78473692  0.89748005    -0.73900
Al2507     Al  0.49789470  0.87238137  0.94207391     1.90100
O2508       O  0.94618003  0.86088710  0.85606159    -0.72900
O2509       O  0.98868799  0.77789791  0.84953858    -0.72800
O2510       O  0.01304992  0.85628189  0.80874100    -0.78400
O2511       O  0.52519491  0.78143360  0.90932665    -0.76600
O2512       O  0.50944988  0.84674651  0.89871159    -1.12800
O2513       O  0.56832790  0.85193583  0.96255452    -0.72000
C2514       C  0.54183161  0.84235891  0.99497563     0.98700
C2515       C  0.95980741  0.89613758  0.87771330     0.95100
Al2516     Al  0.97207121  0.82163560  0.85555336     1.55600
O2517       O  0.55834327  0.91596127  0.94678862    -0.76600
C2518       C  0.99315172  0.75876500  0.88329427     0.99300
C2519       C  0.91062754  0.79767405  0.92180144     0.94200
O2520       O  0.93259206  0.83328716  0.94286999    -0.81900
N2521       N  0.72241071  0.67639904  0.42063185    -0.03100
C2522       C  0.73509731  0.64623450  0.41090984    -0.00500
C2523       C  0.76246527  0.65935643  0.37495253    -0.23300
C2524       C  0.76381474  0.69526792  0.35889847    -0.23600
C2525       C  0.74099099  0.70779765  0.38710397    -0.00600
H2526       H  0.77792370  0.64295119  0.35954031     0.13200
H2527       H  0.78272361  0.71226485  0.33010788     0.13300
N2528       N  0.76865869  0.83325196  0.52711461    -0.03100
C2529       C  0.77568860  0.80627389  0.55410497    -0.00500
C2530       C  0.79151572  0.82607289  0.59227209    -0.23300
C2531       C  0.78854891  0.86278462  0.59345853    -0.23600
C2532       C  0.77678473  0.86882555  0.55256282    -0.00600
H2533       H  0.79438813  0.80756010  0.61842165     0.13200
H2534       H  0.79561961  0.88421270  0.62057722     0.13300
O2535       O  0.77356765  0.77216898  0.34383378    -0.81400
C2536       C  0.83469584  0.93054227  0.40607342     0.98000
O2537       O  0.80379133  0.90779203  0.37873194    -0.70500
O2538       O  0.76242301  0.83628841  0.32660638    -0.74100
Al2539     Al  0.77036089  0.84266311  0.38950931     1.49000
C2540       C  0.78845069  0.84540399  0.29406168     0.93200
O2541       O  0.89883250  0.85766539  0.34916254    -0.80300
O2542       O  0.88564118  0.83206733  0.43567293    -0.73900
Al2543     Al  0.83369071  0.81721027  0.34866048     1.90100
O2544       O  0.89897247  0.90731741  0.39173441    -0.72900
O2545       O  0.81661911  0.83329813  0.47515348    -0.72800
O2546       O  0.83877943  0.91117231  0.43949176    -0.78400
O2547       O  0.76608389  0.84863869  0.45261318    -0.76600
O2548       O  0.82101115  0.84339566  0.39004214    -1.12800
O2549       O  0.73967281  0.77770587  0.40171529    -0.72000
C2550       C  0.74971244  0.75402572  0.37788393     0.98700
C2551       C  0.92013132  0.89338311  0.37044525     0.95100
Al2552     Al  0.85769290  0.86952674  0.43312298     1.55600
O2553       O  0.82632233  0.85011216  0.30022330    -0.76600
C2554       C  0.78344581  0.83741911  0.48284926     0.99300
C2555       C  0.87159675  0.79522984  0.41728339     0.94200
O2556       O  0.83894058  0.78171783  0.39204582    -0.81900
N2557       N  0.72386921  0.67931529  0.70239466    -0.03100
C2558       C  0.71050055  0.64637347  0.73433909    -0.00500
C2559       C  0.74526385  0.65640451  0.76225876    -0.23300
C2560       C  0.78053383  0.69109147  0.74687914    -0.23600
C2561       C  0.76734525  0.70791543  0.71313514    -0.00600
H2562       H  0.74631333  0.63843794  0.79058730     0.13200
H2563       H  0.81140715  0.70572173  0.76394158     0.13300
N2564       N  0.60370844  0.50911510  0.58997578    -0.03100
C2565       C  0.56061983  0.97927335  0.58169607    -0.00500
C2566       C  0.54532462  0.99285340  0.54669540    -0.23300
C2567       C  0.57938662  0.52781656  0.52928192    -0.23600
C2568       C  0.61499318  0.53962547  0.55658895    -0.00600
H2569       H  0.51379251  0.97602628  0.53106696     0.13200
H2570       H  0.57732432  0.54427459  0.49988605     0.13300
O2571       O  0.65691641  0.73857347  0.55224059    -0.81400
C2572       C  0.65213995  0.58464242  0.54863627     0.98000
O2573       O  0.64759524  0.60290703  0.51421026    -0.70500
O2574       O  0.59353863  0.61373832  0.56457868    -0.74100
Al2575     Al  0.63183540  0.64738110  0.51888623     1.49000
C2576       C  0.57420032  0.62892275  0.58726113     0.93200
O2577       O  0.67096134  0.67792919  0.65143613    -0.80300
O2578       O  0.75222661  0.73112958  0.54536692    -0.73900
Al2579     Al  0.66203809  0.70612888  0.59904614     1.90100
O2580       O  0.73036471  0.68134573  0.62447955    -0.72900
O2581       O  0.72021205  0.66359282  0.49683276    -0.72800
O2582       O  0.68337901  0.60784992  0.57504328    -0.78400
O2583       O  0.67185054  0.68042085  0.47043063    -0.76600
O2584       O  0.67087827  0.67487319  0.56012342    -1.12800
O2585       O  0.60467913  0.68580585  0.51700033    -0.72000
C2586       C  0.62069373  0.72352323  0.53384150     0.98700
C2587       C  0.70673874  0.67812683  0.65782715     0.95100
Al2588     Al  0.71891296  0.67111169  0.56080959     1.55600
O2589       O  0.59686487  0.66652910  0.60472658    -0.76600
C2590       C  0.70521866  0.67590403  0.46447169     0.99300
C2591       C  0.74574049  0.75986674  0.56277117     0.94200
O2592       O  0.72036427  0.75025850  0.59637688    -0.81900
loop_ 
_geom_bond_atom_site_label_1 
_geom_bond_atom_site_label_2 
_geom_bond_distance 
_geom_bond_site_symmetry_2 
_ccdc_geom_bond_type 
N1            C5   1.370       .  A
N1            C2   1.386       .  A
N1          C128   1.441       .  S
C2            C3   1.385       .  A
C2           C35   1.512       .  S
C3            C4   1.337       .  A
C3            H6   1.079       .  S
C4            C5   1.368       .  A
C4            H7   1.082       .  S
C5          C642   1.491       .  S
N8           C12   1.382       .  A
N8            C9   1.388       .  A
N8           C34   1.453       .  S
C9           C10   1.381       .  A
C9          C124   1.513       .  S
C10          C11   1.326       .  A
C10          H13   1.076       .  S
C11          C12   1.371       .  A
C11          H14   1.075       .  S
C12         C611   1.498       .  S
O15          C30   1.252       .  A
O15         Al23   1.862       .  S
C16         C175   1.512       .  S
C16          O26   1.274       .  A
C16          O17   1.271       .  A
O17       Al1315   1.914       .  S
O18          C20   1.254       .  A
O18         Al19   1.875   1_455  S
Al19         O29   2.013   1_655  S
Al19       O1313   1.914       .  S
Al19       O1323   1.953       .  S
Al19       O1324   1.744       .  S
C20         C621   1.491       .  S
C20          O33   1.269       .  A
O21        C1327   1.269       .  A
O21         Al23   1.941   1_655  S
O22        C1331   1.275       .  A
O22         Al32   2.006       .  S
Al23         O36   1.919       .  S
Al23         O33   2.007       .  S
Al23       O1324   1.747   1_455  S
O24          C31   1.277       .  A
O24         Al32   1.944       .  S
O25          C34   1.279       .  A
O25         Al32   1.962       .  S
O26         Al32   2.011       .  S
O27          C34   1.275       .  A
O27       Al1315   1.953       .  S
O28         Al32   1.763       .  S
O28       Al1315   1.744       .  S
O28       Al1319   1.747       .  S
O29          C30   1.271       .  A
C30         C329   1.491       .  S
C31         N167   1.443       .  S
C31        O1317   1.269       .  A
C35          O36   1.273       .  A
C35        O1318   1.275   1_455  A
N37          C41   1.374       .  A
N37          C38   1.386       .  A
N37          C92   1.442       .  S
C38          C39   1.380       .  A
C38          C52   1.515       .  S
C39          C40   1.331       .  A
C39          H42   1.072   1_554  S
C40          C41   1.366       .  A
C40          H43   1.074       .  S
C41         C531   1.492       .  S
N44          C48   1.382       .  A
N44          C45   1.389       .  A
N44          C56   1.460       .  S
C45          C46   1.381       .  A
C45          C93   1.511       .  S
C46          C47   1.330       .  A
C46          H49   1.074       .  S
C47          C48   1.370       .  A
C47          H50   1.080       .  S
C48         C548   1.493       .  S
O51         C714   1.254       .  A
O51         Al59   1.899       .  S
C52          O62   1.274       .  A
C52          O53   1.278       .  A
O53         Al55   2.014       .  S
O54          C56   1.271       .  A
O54         Al55   1.970       .  S
Al55         O63   1.901   1_554  S
Al55         O65   2.033       .  S
Al55         O64   1.779       .  S
C56          O69   1.266       .  A
O57          C67   1.258       .  A
O57         Al59   1.999       .  S
O58          C71   1.270       .  A
O58        Al716   2.012       .  S
Al59         O72   1.891       .  S
Al59        O717   1.981       .  S
Al59        O712   1.695       .  S
O60          C67   1.262       .  A
O60        Al716   1.891       .  S
O61          C70   1.271       .  A
O61         Al68   1.936   1_556  S
O62         Al68   1.912       .  S
O63          C70   1.269       .  A
O64         Al68   1.735       .  S
O64        Al707   1.695   1_545  S
O65          C66   1.280       .  A
C66         C780   1.506   1_545  S
C66         O699   1.254       .  A
C67         C401   1.504       .  S
Al68        O706   2.012   1_545  S
Al68        O708   1.891       .  S
O69        Al707   1.981   1_545  S
C70         N138   1.429       .  S
C71         C487   1.503       .  S
C71          O72   1.257       .  A
O73          C88   1.253       .  A
O73         Al81   1.874       .  S
C74         C106   1.511       .  S
C74          O84   1.275       .  A
C74          O75   1.273       .  A
O75         Al77   1.919       .  S
O76          C78   1.253       .  A
O76         Al77   1.862       .  S
Al77         O85   1.940       .  S
Al77         O87   2.007       .  S
Al77         O86   1.749       .  S
C78         C480   1.492       .  S
C78          O91   1.272       .  A
O79          C89   1.275       .  A
O79         Al81   1.954       .  S
O80          C93   1.274       .  A
O80         Al90   2.009       .  S
Al81         O94   1.912       .  S
Al81         O91   2.013       .  S
Al81         O86   1.742       .  S
O82          C89   1.279       .  A
O82         Al90   1.962       .  S
O83          C92   1.277       .  A
O83         Al90   1.943       .  S
O84         Al90   2.004       .  S
O85          C92   1.269       .  A
O86         Al90   1.763       .  S
O87          C88   1.269       .  A
C88         C408   1.491       .  S
C89          N95   1.453       .  S
C93          O94   1.271       .  A
N95          C99   1.388       .  A
N95          C96   1.382       .  A
C96          C97   1.371       .  A
C96         C381   1.498       .  S
C97          C98   1.326       .  A
C97         H100   1.076       .  S
C98          C99   1.381       .  A
C98         H101   1.077       .  S
C99         C110   1.512       .  S
N102        C106   1.386       .  A
N102        C103   1.370       .  A
N102        C114   1.441       .  S
C103        C104   1.367       .  A
C103        C426   1.490       .  S
C104        C105   1.336       .  A
C104        H107   1.082       .  S
C105        C106   1.384       .  A
C105        H108   1.078       .  S
O109        C124   1.270       .  A
O109       Al117   1.914       .  S
C110        O120   1.270       .  A
C110        O111   1.274       .  A
O111       Al113   2.012       .  S
O112        C114   1.275       .  A
O112       Al113   1.934       .  S
Al113       O121   1.933       .  S
Al113       O123   2.013       .  S
Al113      O1418   1.769       .  S
C114       O1423   1.270       .  A
O115        C125   1.266       .  A
O115       Al117   1.991       .  S
O116        C129   1.267       .  A
O116       Al126   1.993       .  S
Al117       O130   1.886       .  S
Al117       O127   1.945       .  S
Al117       O122   1.743       .  S
O118        C125   1.260       .  A
O118       Al126   1.886       .  S
O119        C128   1.270   1_655  A
O119      Al1422   1.946       .  S
O120      Al1422   1.914   1_455  S
O121        C128   1.275       .  A
O122       Al126   1.743       .  S
O122      Al1409   1.769       .  S
O123       C1420   1.274   1_455  A
C124       O1419   1.274       .  A
C125        C473   1.492       .  S
Al126      O1415   1.946       .  S
Al126      O1416   1.914       .  S
O127       C1410   1.270       .  A
C129        C336   1.492       .  S
C129        O130   1.259       .  A
N131        C135   1.379       .  A
N131        C132   1.368       .  A
N131        C161   1.429   1_554  S
C132        C133   1.387       .  A
C132        C714   1.506       .  S
C133        C134   1.334       .  A
C133        H136   1.074       .  S
C134        C135   1.370       .  A
C134        H137   1.077       .  S
C135        C309   1.497       .  S
N138        C142   1.371       .  A
N138        C139   1.374       .  A
C139        C140   1.380       .  A
C139        C146   1.499       .  S
C140        C141   1.330       .  A
C140        H143   1.070       .  S
C141        C142   1.366       .  A
C141        H144   1.073       .  S
C142        C268   1.487       .  S
O145        C160   1.256       .  A
O145       Al153   1.872       .  S
C146        O147   1.266       .  A
C146        O804   1.277   1_545  A
O147       Al149   1.904       .  S
O148        C150   1.257       .  A
O148       Al149   1.876       .  S
Al149       O157   1.931       .  S
Al149       O159   1.997       .  S
Al149       O158   1.743       .  S
C150        C494   1.493       .  S
C150        O163   1.268       .  A
O151        C809   1.271   1_545  A
O151       Al153   1.928       .  S
O152        C165   1.277       .  A
O152       Al162   2.007       .  S
Al153       O163   1.999       .  S
Al153       O814   1.908   1_545  S
Al153       O158   1.744       .  S
O154        C161   1.269       .  A
O154       Al162   1.919       .  S
O155        C164   1.269       .  A
O155       Al162   1.917       .  S
O156        C794   1.277       .  A
O156       Al162   2.007       .  S
O157        C812   1.272   1_545  A
O158       Al810   1.768   1_545  S
O159        C160   1.268       .  A
C160        C228   1.492       .  S
C161        O799   1.271       .  A
Al162       O806   1.768       .  S
C164        N181   1.430       .  S
C164        O805   1.272       .  A
C165        C192   1.501       .  S
C165        O166   1.267       .  A
O166       Al801   1.908       .  S
N167        C171   1.374       .  A
N167        C168   1.387       .  A
C168        C169   1.380       .  A
C168        C196   1.514       .  S
C169        C170   1.330       .  A
C169        H172   1.073       .  S
C170        C171   1.366       .  A
C170        H173   1.073       .  S
C171        C251   1.492       .  S
N174        C178   1.381       .  A
N174        C175   1.389       .  A
N174        C200   1.459       .  S
C175        C176   1.381       .  A
C176        C177   1.330       .  A
C176        H179   1.074       .  S
C177        C178   1.371       .  A
C177        H180   1.080       .  S
C178        C355   1.494       .  S
N181        C185   1.370       .  A
N181        C182   1.379       .  A
C182        C183   1.369       .  A
C182        C467   1.496       .  S
C183        C184   1.332       .  A
C183        H186   1.077       .  S
C184        C185   1.387       .  A
C184        H187   1.074       .  S
C185        C210   1.506       .  S
N188        C192   1.375       .  A
N188        C189   1.371       .  A
N188        C214   1.429       .  S
C189        C190   1.366       .  A
C189        C571   1.488       .  S
C190        C191   1.330       .  A
C190        H193   1.074       .  S
C191        C192   1.380       .  A
C191        H194   1.070       .  S
O195        C210   1.255       .  A
O195       Al203   1.900       .  S
C196        O206   1.274       .  A
C196        O197   1.277       .  A
O197       Al199   2.014       .  S
O198        C200   1.271       .  A
O198       Al199   1.969       .  S
Al199       O207   1.900       .  S
Al199       O209   2.033       .  S
Al199       O208   1.779       .  S
C200        O213   1.266       .  A
O201        C211   1.258       .  A
O201       Al203   2.000       .  S
O202        C215   1.270       .  A
O202       Al212   2.012       .  S
Al203       O216   1.894       .  S
Al203       O213   1.978       .  S
Al203       O208   1.696       .  S
O204        C211   1.263       .  A
O204       Al212   1.894       .  S
O205        C214   1.272       .  A
O205       Al212   1.938       .  S
O206       Al212   1.912       .  S
O207        C214   1.269       .  A
O208       Al212   1.734       .  S
O209        C210   1.280       .  A
C211        C617   1.504       .  S
C215        C221   1.505       .  S
C215        O216   1.258       .  A
N217        C221   1.381       .  A
N217        C218   1.386       .  A
N217        C269   1.441       .  S
C218        C219   1.381       .  A
C218        C232   1.517       .  S
C219        C220   1.336       .  A
C219        H222   1.072       .  S
C220        C221   1.373       .  A
C220        H223   1.079       .  S
N224        C228   1.376       .  A
N224       C1521   1.382       .  A
N224        C236   1.441       .  S
C225       N1520   1.382       .  A
C225        C226   1.380       .  A
C225        C254   1.509       .  S
C226       C1523   1.330   1_455  A
C226        H229   1.073       .  S
C227        C228   1.368       .  A
C227       C1522   1.330       .  A
C227        H230   1.075       .  S
O231        C246   1.272       .  A
O231       Al239   1.921       .  S
C232        O242   1.271       .  A
C232        O233   1.277       .  A
O233      Al1531   2.017   1_455  S
O234        C236   1.274       .  A
O234       Al235   1.939       .  S
Al235       O243   1.940       .  S
Al235       O245   2.017       .  S
Al235      O1529   2.017       .  S
Al235       O244   1.762       .  S
C236        O249   1.271       .  A
O237       C1543   1.271       .  A
O237       Al239   2.014       .  S
O238        C251   1.268       .  A
O238      Al1544   2.002       .  S
Al239       O252   1.874       .  S
Al239       O249   1.942       .  S
Al239       O244   1.744       .  S
O240        C247   1.255       .  A
O240       Al248   1.872       .  S
O241        C250   1.272       .  A
O241       Al248   1.950   1_655  S
O242       Al248   1.911       .  S
O243       C1546   1.275       .  A
O244      Al1544   1.742       .  S
O245        C246   1.276       .  A
C246        C315   1.516       .  S
C247        C434   1.496       .  S
C247       O1533   1.271       .  A
Al248      O1534   2.002   1_455  S
Al248      O1540   1.742   1_455  S
C250       N1614   1.444       .  S
C250       O1539   1.275   1_655  A
C251        O252   1.254       .  A
O253        C268   1.250       .  A
O253       Al261   1.869       .  S
C254        O264   1.277       .  A
C254        O255   1.270       .  A
O255       Al257   1.911       .  S
O256        C258   1.257       .  A
O256       Al257   1.877       .  S
Al257       O265   1.950       .  S
Al257       O267   2.000       .  S
Al257       O266   1.746       .  S
C258        C441   1.501       .  S
C258        O271   1.271       .  A
O259        C269   1.272       .  A
O259       Al261   1.940       .  S
O260        C273   1.276       .  A
O260       Al270   2.012       .  S
Al261       O274   1.915       .  S
Al261       O271   2.016       .  S
Al261       O266   1.745       .  S
O262        C269   1.274       .  A
O262       Al270   1.946       .  S
O263        C272   1.274       .  A
O263       Al270   1.940       .  S
O264       Al270   2.013       .  S
O265        C272   1.274       .  A
O266       Al270   1.767       .  S
O267        C268   1.268       .  A
C272        N275   1.445   1_556  S
C273        C286   1.513       .  S
C273        O274   1.272       .  A
N275        C279   1.383       .  A
N275        C276   1.378       .  A
C276        C277   1.373       .  A
C276        C527   1.497       .  S
C277        C278   1.331       .  A
C277        H280   1.081       .  S
C278        C279   1.384       .  A
C278        H281   1.077       .  S
C279        C304   1.507       .  S
N282        C286   1.386       .  A
N282        C283   1.377       .  A
N282        C308   1.443       .  S
C283        C284   1.368       .  A
C283        C575   1.499       .  S
C284        C285   1.331       .  A
C284        H287   1.073       .  S
C285        C286   1.381       .  A
C285        H288   1.079       .  S
O289        C304   1.270       .  A
O289       Al297   1.913       .  S
C290        C398   1.524       .  S
C290        O300   1.273       .  A
C290        O291   1.277       .  A
O291       Al293   2.026       .  S
O292        C294   1.270       .  A
O292       Al293   1.921       .  S
Al293       O301   1.935       .  S
Al293       O303   2.009       .  S
Al293       O302   1.769       .  S
C294        N404   1.442       .  S
C294        O307   1.275       .  A
O295        C305   1.270       .  A
O295       Al297   2.008       .  S
O296        C309   1.269       .  A
O296       Al306   2.002       .  S
Al297       O310   1.879       .  S
Al297       O307   1.952       .  S
Al297       O302   1.750       .  S
O298        C305   1.256       .  A
O298       Al306   1.877       .  S
O299        C308   1.271       .  A
O299       Al306   1.949   1_556  S
O300       Al306   1.926       .  S
O301        C308   1.273   1_554  A
O302       Al306   1.745       .  S
O303        C304   1.278       .  A
C305        C498   1.500       .  S
C309        O310   1.259       .  A
N311        C315   1.386       .  A
N311        C312   1.377       .  A
N311        C340   1.440       .  S
C312        C313   1.365       .  A
C312        C463   1.499       .  S
C313        C314   1.333       .  A
C313        H316   1.074       .  S
C314        C315   1.381       .  A
C314        H317   1.076       .  S
N318        C322   1.386       .  A
N318       C1615   1.376       .  A
N318       C1546   1.444       .  S
C319       N1614   1.376   1_455  A
C319        C320   1.370       .  A
C319        C632   1.495       .  S
C320       C1617   1.325   1_455  A
C320        H323   1.074       .  S
C321        C322   1.383       .  A
C321       C1616   1.325       .  A
C321        H324   1.077       .  S
C322        C344   1.510       .  S
N325        C329   1.375       .  A
N325        C326   1.381       .  A
N325        C366   1.440       .  S
C326        C327   1.382       .  A
C326        C358   1.496       .  S
C327        C328   1.326       .  A
C327        H330   1.077       .  S
C328        C329   1.371       .  A
C328        H331   1.072       .  S
N332        C336   1.378       .  A
N332        C333   1.375       .  A
N332        C354   1.440       .  S
C333        C334   1.385       .  A
C333        C362   1.501       .  S
C334        C335   1.329       .  A
C334        H337   1.078       .  S
C335        C336   1.370       .  A
C335        H338   1.075       .  S
O339        C354   1.272       .  A
O339       Al347   1.942       .  S
C340        O341   1.267       .  A
C340        O998   1.269       .  A
O341       Al343   1.911       .  S
O342        C344   1.276       .  A
O342       Al343   2.015       .  S
Al343       O351   1.992       .  S
Al343       O353   1.936       .  S
Al343       O352   1.775       .  S
C344        O357   1.269       .  A
O345        C355   1.258       .  A
O345       Al995   1.884       .  S
O346        C359   1.266       .  A
O346       Al356   1.931       .  S
Al347       O357   1.916       .  S
Al347       O993   1.884       .  S
Al347      O1008   1.989   1_545  S
Al347       O352   1.741       .  S
O348        C355   1.261       .  A
O348       Al356   1.972       .  S
O349        C358   1.272       .  A
O349       Al356   1.911       .  S
O350        C988   1.269       .  A
O350       Al356   1.954       .  S
O351       C1006   1.277   1_545  A
O352      Al1004   1.755   1_545  S
O353        C354   1.271       .  A
Al356      O1000   1.755       .  S
C358        O999   1.277       .  A
C359        C588   1.504       .  S
C359        O360   1.270       .  A
O360       Al995   1.989       .  S
O361        C376   1.275       .  A
O361      Al1017   1.923       .  S
C362        O372   1.263       .  A
C362       O1011   1.280   1_545  A
O363       C1010   1.280       .  A
O363       Al365   2.019       .  S
O364        C366   1.268       .  A
O364       Al365   1.908       .  S
Al365       O373   1.919       .  S
Al365       O375   2.024       .  S
Al365      O1022   1.774       .  S
C366        O379   1.275       .  A
O367        C377   1.274       .  A
O367       Al369   2.016       .  S
O368        C381   1.266       .  A
O368       Al378   2.006       .  S
Al369       O382   1.879       .  S
Al369      O1009   1.923   1_545  S
Al369      O1027   1.955       .  S
Al369       O374   1.734   1_545  S
O370        C377   1.255       .  A
O370       Al378   1.875       .  S
O371       C1028   1.270       .  A
O371       Al378   1.867   1_565  S
O372       Al378   1.903       .  S
O373        C380   1.263       .  A
O374       Al378   1.737   1_565  S
O374      Al1013   1.774       .  S
O375        C376   1.277       .  A
C376        C387   1.528       .  S
C377        C578   1.499       .  S
O379      Al1017   1.955       .  S
C380        N390   1.408       .  S
C380       O1019   1.270       .  A
C381        O382   1.258       .  A
N383        C384   1.375       .  A
N383       C1683   1.396       .  A
N383        C430   1.445       .  S
C384        C385   1.366       .  A
C384        C607   1.498       .  S
C385       C1682   1.334       .  A
C385        H388   1.077       .  S
C386        C387   1.384       .  A
C386       C1681   1.334   1_455  A
C386        H389   1.074       .  S
C387       N1679   1.396   1_455  A
N390        C394   1.364       .  A
N390        C391   1.373       .  A
C391        C392   1.346       .  A
C391        C538   1.505       .  S
C392        C393   1.352       .  A
C392        H395   1.053       .  S
C393        C394   1.314       .  A
C393        H396   1.057       .  S
C394        C431   1.466       .  S
N397        C401   1.392       .  A
N397       C1694   1.395   1_455  A
N397        C427   1.461   1_455  S
C398       N1693   1.395       .  A
C398        C399   1.378       .  A
C399       C1696   1.321       .  A
C399        H402   1.073       .  S
C400        C401   1.368       .  A
C400       C1695   1.321   1_455  A
C400        H403   1.074       .  S
N404        C408   1.375       .  A
N404        C405   1.376       .  A
C405        C406   1.380       .  A
C405        C412   1.491       .  S
C406        C407   1.329       .  A
C406        H409   1.079       .  S
C407        C408   1.372       .  A
C407        H410   1.075       .  S
O411        C426   1.244       .  A
O411       Al419   1.876       .  S
C412        O422   1.272       .  A
C412        O413   1.270       .  A
O413       Al415   1.912       .  S
O414        C416   1.256       .  A
O414       Al415   1.875       .  S
Al415       O423   1.958       .  S
Al415      O1721   2.011       .  S
Al415      O1720   1.747       .  S
C416        C505   1.494       .  S
C416       O1725   1.274       .  A
O417        C427   1.273       .  A
O417       Al419   1.971   1_655  S
O418        C431   1.259       .  A
O418      Al1724   1.899   1_455  S
Al419       O432   1.868       .  S
Al419       O429   2.018   1_455  S
Al419       O424   1.738   1_455  S
O420        C427   1.271   1_455  A
O420      Al1724   1.950   1_455  S
O421        C430   1.280       .  A
O421       Al428   1.939       .  S
O422       Al428   1.986       .  S
O423        C430   1.276       .  A
O424      Al1711   1.747       .  S
O424      Al1724   1.764       .  S
O425        C426   1.265       .  A
O425      Al1711   2.011   1_455  S
Al428      O1714   1.899       .  S
Al428      O1716   1.950       .  S
Al428      O1720   1.764       .  S
O429       C1712   1.274       .  A
C431        O432   1.278       .  A
N433        C437   1.382       .  A
N433        C434   1.379       .  A
N433        C556   1.445       .  S
C434        C435   1.374       .  A
C435        C436   1.331       .  A
C435        H438   1.081       .  S
C436        C437   1.384       .  A
C436        H439   1.077       .  S
C437        C462   1.506       .  S
N440        C441   1.378       .  A
N440       C1092   1.388   1_545  A
N440        C466   1.445       .  S
C441        C442   1.368       .  A
C442       C1091   1.331   1_545  A
C442        H445   1.073       .  S
C443        C444   1.381       .  A
C443       C1090   1.331       .  A
C443        H446   1.079       .  S
C444       N1088   1.388       .  A
C444        C560   1.514       .  S
O447        C462   1.270       .  A
O447       Al455   1.913       .  S
C448        C614   1.527       .  S
C448        O458   1.273       .  A
C448        O449   1.278       .  A
O449       Al451   2.031       .  S
O450       C1100   1.270       .  A
O450       Al451   1.924       .  S
Al451       O459   1.942       .  S
Al451      O1109   2.010   1_545  S
Al451       O460   1.768       .  S
C452       N1268   1.442       .  S
C452        O465   1.275       .  A
C452       O1098   1.270       .  A
O453        C463   1.270       .  A
O453      Al1103   2.006   1_545  S
O454       C1115   1.268   1_545  A
O454       Al464   2.000       .  S
Al455       O468   1.880       .  S
Al455       O465   1.952       .  S
Al455      O1101   2.006       .  S
Al455      O1108   1.750       .  S
O456        C463   1.256       .  A
O456       Al464   1.878       .  S
O457        C466   1.271       .  A
O457       Al464   1.949       .  S
O458       Al464   1.925       .  S
O459        C466   1.274       .  A
O460       Al464   1.745       .  S
O460      Al1103   1.750   1_545  S
O461        C462   1.278       .  A
O461      Al1099   2.010       .  S
C467        O468   1.259       .  A
C467       O1102   1.268       .  A
N469        C473   1.379       .  A
N469       C1118   1.374   1_545  A
N469        C549   1.441       .  S
C470       N1117   1.374       .  A
C470        C471   1.386       .  A
C470        C592   1.500       .  S
C471       C1120   1.329       .  A
C471        H474   1.079       .  S
C472        C473   1.370       .  A
C472       C1119   1.329   1_545  A
C472        H475   1.076       .  S
N476        C480   1.376       .  A
N476        C477   1.380       .  A
N476        C596   1.441       .  S
C477        C478   1.382       .  A
C477        C534   1.497       .  S
C478        C479   1.327       .  A
C478        H481   1.077       .  S
C479        C480   1.371       .  A
C479        H482   1.072       .  S
N483        C487   1.381       .  A
N483        C484   1.385       .  A
N483        C570   1.441   1_554  S
C484        C485   1.380       .  A
C484        C512   1.515       .  S
C485        C486   1.335       .  A
C485        H488   1.071       .  S
C486        C487   1.373       .  A
C486        H489   1.079       .  S
N490        C494   1.377       .  A
N490        C491   1.381       .  A
N490        C516   1.441       .  S
C491        C492   1.380       .  A
C491        C574   1.508       .  S
C492        C493   1.331       .  A
C492        H495   1.073       .  S
C493        C494   1.368       .  A
C493        H496   1.076       .  S
N497        C501   1.387       .  A
N497       C1146   1.377   1_545  A
N497       C1200   1.440       .  S
C498       N1145   1.377       .  A
C498        C499   1.365       .  A
C499       C1148   1.332       .  A
C499        H502   1.074       .  S
C500        C501   1.380       .  A
C500       C1147   1.332   1_545  A
C500        H503   1.075   1_554  S
C501        C526   1.516       .  S
N504        C508   1.386       .  A
N504        C505   1.376       .  A
N504        C530   1.444       .  S
C505        C506   1.370       .  A
C506        C507   1.324       .  A
C506        H509   1.075       .  S
C507        C508   1.384       .  A
C507        H510   1.077       .  S
C508        C553   1.509       .  S
O511        C526   1.273       .  A
O511      Al1815   1.922       .  S
C512        O522   1.272       .  A
C512       O1809   1.277   1_455  A
O513       C1808   1.277       .  A
O513       Al515   2.013       .  S
O514        C516   1.274       .  A
O514       Al515   1.939   1_556  S
Al515       O523   1.936       .  S
Al515       O525   2.014       .  S
Al515      O1820   1.764       .  S
C516        O529   1.271       .  A
O517        C527   1.271       .  A
O517       Al519   2.014       .  S
O518        C531   1.268       .  A
O518       Al528   2.001       .  S
Al519       O532   1.870       .  S
Al519      O1807   1.922   1_455  S
Al519      O1825   1.941   1_454  S
Al519       O524   1.745   1_455  S
O520        C527   1.255       .  A
O520       Al528   1.870       .  S
O521       C1826   1.273       .  A
O521       Al528   1.952   1_655  S
O522       Al528   1.910       .  S
O523        C530   1.274       .  A
O524       Al528   1.741   1_655  S
O524      Al1811   1.764       .  S
O525        C526   1.276       .  A
O529      Al1815   1.941   1_556  S
C530       O1817   1.273       .  A
C531        O532   1.254       .  A
O533        C548   1.259       .  A
O533       Al541   1.886       .  S
C534        O544   1.277       .  A
C534        O535   1.272       .  A
O535       Al537   1.911       .  S
O536        C538   1.266       .  A
O536       Al537   1.929       .  S
Al537       O545   1.951       .  S
Al537      O1195   1.970       .  S
Al537      O1194   1.756       .  S
C538       O1199   1.271       .  A
O539        C549   1.273       .  A
O539       Al541   1.944       .  S
O540        C553   1.276       .  A
O540       Al550   2.015       .  S
Al541       O554   1.916       .  S
Al541       O551   1.992       .  S
Al541       O546   1.741       .  S
O542        C549   1.271       .  A
O542       Al550   1.938       .  S
O543        C552   1.267       .  A
O543      Al1198   1.912       .  S
O544      Al1198   1.992       .  S
O545        C552   1.268       .  A
O546       Al550   1.776       .  S
O546      Al1185   1.756   1_545  S
O547        C548   1.260       .  A
O547      Al1185   1.970   1_545  S
Al550      O1191   1.912       .  S
Al550      O1192   1.992   1_545  S
O551       C1186   1.271   1_545  A
C552       N1145   1.440       .  S
C553        O554   1.269       .  A
O555        C570   1.271       .  A
O555       Al563   1.941   1_455  S
C556        O557   1.274       .  A
C556       O1862   1.274       .  A
O557       Al559   1.941       .  S
O558        C560   1.276       .  A
O558       Al559   2.010       .  S
Al559       O567   2.012       .  S
Al559       O569   1.945       .  S
Al559       O568   1.768       .  S
C560        O573   1.274       .  A
O561        C571   1.250       .  A
O561      Al1859   1.865       .  S
O562        C575   1.256       .  A
O562       Al572   1.873       .  S
Al563       O573   1.917   1_655  S
Al563      O1857   1.865       .  S
Al563      O1872   2.013       .  S
Al563       O568   1.746   1_655  S
O564        C571   1.269       .  A
O564       Al572   2.002       .  S
O565        C574   1.270       .  A
O565       Al572   1.912       .  S
O566       C1852   1.274       .  A
O566       Al572   1.950       .  S
O567       C1870   1.278   1_455  A
O568      Al1868   1.745   1_455  S
O569        C570   1.273       .  A
Al572      O1864   1.745       .  S
C574       O1863   1.278       .  A
C575        O576   1.271       .  A
O576      Al1859   2.013       .  S
N577        C581   1.396       .  A
N577        C578   1.375       .  A
N577        C646   1.446       .  S
C578        C579   1.366       .  A
C579        C580   1.334       .  A
C579        H582   1.077       .  S
C580        C581   1.384       .  A
C580        H583   1.074       .  S
C581        C606   1.528       .  S
N584        C588   1.374       .  A
N584        C585   1.363       .  A
N584        C610   1.409       .  S
C585        C586   1.315       .  A
C585        C647   1.465       .  S
C586        C587   1.351       .  A
C586        H589   1.058       .  S
C587        C588   1.347       .  A
C587        H590   1.054       .  S
O591        C606   1.276       .  A
O591       Al599   1.923       .  S
C592        O602   1.262       .  A
C592        O593   1.281       .  A
O593       Al595   2.021       .  S
O594        C596   1.268       .  A
O594       Al595   1.907       .  S
Al595       O603   1.921       .  S
Al595       O605   2.024       .  S
Al595       O604   1.774       .  S
C596        O609   1.275       .  A
O597        C607   1.274       .  A
O597       Al599   2.015       .  S
O598        C611   1.266       .  A
O598       Al608   2.005       .  S
Al599       O612   1.878       .  S
Al599       O609   1.957       .  S
Al599       O604   1.735       .  S
O600        C607   1.254       .  A
O600       Al608   1.874       .  S
O601        C610   1.270       .  A
O601       Al608   1.867       .  S
O602       Al608   1.901       .  S
O603        C610   1.264       .  A
O604       Al608   1.737       .  S
O605        C606   1.277       .  A
C611        O612   1.259       .  A
N613        C617   1.392       .  A
N613        C614   1.396       .  A
N613        C643   1.461       .  S
C614        C615   1.379       .  A
C615        C616   1.321       .  A
C615        H618   1.072       .  S
C616        C617   1.367       .  A
C616        H619   1.076       .  S
N620        C624   1.377       .  A
N620       C1269   1.376   1_545  A
N620       C1100   1.442       .  S
C621       N1268   1.376       .  A
C621        C622   1.372       .  A
C622       C1271   1.329       .  A
C622        H625   1.075       .  S
C623        C624   1.380       .  A
C623       C1270   1.329   1_545  A
C623        H626   1.078       .  S
C624        C628   1.493       .  S
O627        C642   1.244       .  A
O627       Al635   1.877       .  S
C628        O638   1.273       .  A
C628        O629   1.269       .  A
O629       Al631   1.913       .  S
O630        C632   1.257       .  A
O630       Al631   1.876       .  S
Al631       O639   1.957       .  S
Al631       O641   2.012       .  S
Al631       O640   1.746       .  S
C632        O645   1.274       .  A
O633        C643   1.273       .  A
O633       Al635   1.968       .  S
O634        C647   1.259       .  A
O634       Al644   1.900       .  S
Al635       O648   1.866       .  S
Al635       O645   2.019       .  S
Al635       O640   1.739       .  S
O636        C643   1.271       .  A
O636       Al644   1.951       .  S
O637        C646   1.281       .  A
O637       Al644   1.943       .  S
O638       Al644   1.989       .  S
O639        C646   1.276       .  A
O640       Al644   1.764       .  S
O641        C642   1.265       .  A
C647        O648   1.278       .  A
N649        C653   1.370       .  A
N649        C650   1.386       .  A
N649        C776   1.441       .  S
C650        C651   1.385       .  A
C650        C683   1.512       .  S
C651        C652   1.337       .  A
C651        H654   1.079       .  S
C652        C653   1.368       .  A
C652        H655   1.082       .  S
C653       C1290   1.491       .  S
N656        C660   1.382       .  A
N656        C657   1.388       .  A
N656        C682   1.453       .  S
C657        C658   1.381       .  A
C657        C772   1.513       .  S
C658        C659   1.326       .  A
C658        H661   1.076       .  S
C659        C660   1.371       .  A
C659        H662   1.075       .  S
C660       C1259   1.498       .  S
O663        C678   1.252       .  A
O663       Al671   1.862       .  S
C664        C823   1.512       .  S
C664        O674   1.274       .  A
C664        O665   1.271       .  A
O665      Al1963   1.914       .  S
O666        C668   1.254       .  A
O666       Al667   1.875   1_455  S
Al667      O1961   1.914       .  S
Al667      O1971   1.953       .  S
Al667       O677   2.013   1_655  S
Al667      O1972   1.744       .  S
C668       C1269   1.491       .  S
C668        O681   1.269       .  A
O669       C1975   1.269       .  A
O669       Al671   1.941   1_655  S
O670       C1979   1.275       .  A
O670       Al680   2.006       .  S
Al671       O684   1.919       .  S
Al671       O681   2.007       .  S
Al671      O1972   1.747   1_455  S
O672        C679   1.277       .  A
O672       Al680   1.944       .  S
O673        C682   1.279       .  A
O673       Al680   1.962       .  S
O674       Al680   2.011       .  S
O675        C682   1.275       .  A
O675      Al1963   1.953       .  S
O676      Al1963   1.744       .  S
O676      Al1967   1.747       .  S
O676       Al680   1.763       .  S
O677        C678   1.271       .  A
C678        C977   1.491       .  S
C679        N815   1.443       .  S
C679       O1965   1.269       .  A
C683       O1966   1.275   1_455  A
C683        O684   1.273       .  A
N685        C689   1.374       .  A
N685        C686   1.386       .  A
N685        C740   1.442       .  S
C686        C687   1.380       .  A
C686        C700   1.515       .  S
C687        C688   1.331       .  A
C687        H690   1.072   1_554  S
C688        C689   1.366       .  A
C688        H691   1.074       .  S
C689       C1179   1.492       .  S
N692        C696   1.382       .  A
N692        C693   1.389       .  A
N692        C704   1.460       .  S
C693        C694   1.381       .  A
C693        C741   1.511       .  S
C694        C695   1.330       .  A
C694        H697   1.074       .  S
C695        C696   1.370       .  A
C695        H698   1.080       .  S
C696       C1196   1.493       .  S
O699       Al707   1.899   1_545  S
C700        O710   1.274       .  A
C700        O701   1.278       .  A
O701       Al703   2.014       .  S
O702        C704   1.271       .  A
O702       Al703   1.970       .  S
Al703       O711   1.901   1_554  S
Al703       O713   2.033       .  S
Al703       O712   1.779       .  S
C704        O717   1.266       .  A
O705        C715   1.258       .  A
O705       Al707   1.999       .  S
O706        C719   1.270       .  A
Al707       O720   1.891       .  S
O708        C715   1.262   1_545  A
O709        C718   1.271       .  A
O709       Al716   1.936   1_556  S
O710       Al716   1.912       .  S
O711        C718   1.269       .  A
O712       Al716   1.735       .  S
O713        C714   1.280       .  A
C715       C1049   1.504       .  S
C718        N786   1.429       .  S
C719       C1135   1.503       .  S
C719        O720   1.257       .  A
O721        C736   1.253       .  A
O721       Al729   1.874       .  S
C722        C754   1.511       .  S
C722        O732   1.275       .  A
C722        O723   1.274       .  A
O723       Al725   1.919       .  S
O724        C726   1.253       .  A
O724       Al725   1.862       .  S
Al725       O733   1.940       .  S
Al725       O735   2.007       .  S
Al725       O734   1.749       .  S
C726       C1128   1.492       .  S
C726        O739   1.272       .  A
O727        C737   1.275       .  A
O727       Al729   1.954       .  S
O728        C741   1.274       .  A
O728       Al738   2.009       .  S
Al729       O742   1.912       .  S
Al729       O739   2.013       .  S
Al729       O734   1.742       .  S
O730        C737   1.279       .  A
O730       Al738   1.962       .  S
O731        C740   1.277       .  A
O731       Al738   1.943       .  S
O732       Al738   2.004       .  S
O733        C740   1.269       .  A
O734       Al738   1.763       .  S
O735        C736   1.269       .  A
C736       C1056   1.491       .  S
C737        N743   1.453       .  S
C741        O742   1.271       .  A
N743        C747   1.388       .  A
N743        C744   1.382       .  A
C744        C745   1.371       .  A
C744       C1029   1.498       .  S
C745        C746   1.326       .  A
C745        H748   1.076       .  S
C746        C747   1.381       .  A
C746        H749   1.077       .  S
C747        C758   1.512       .  S
N750        C754   1.386       .  A
N750        C751   1.370       .  A
N750        C762   1.441       .  S
C751        C752   1.367       .  A
C751       C1074   1.490       .  S
C752        C753   1.336       .  A
C752        H755   1.082       .  S
C753        C754   1.384       .  A
C753        H756   1.078       .  S
O757        C772   1.270       .  A
O757       Al765   1.914       .  S
C758        O768   1.270       .  A
C758        O759   1.274       .  A
O759       Al761   2.012       .  S
O760        C762   1.275       .  A
O760       Al761   1.934       .  S
Al761       O769   1.933       .  S
Al761       O771   2.013       .  S
Al761      O2066   1.769       .  S
C762       O2071   1.270       .  A
O763        C773   1.266       .  A
O763       Al765   1.991       .  S
O764        C777   1.267       .  A
O764       Al774   1.993       .  S
Al765       O778   1.886       .  S
Al765       O775   1.945       .  S
Al765       O770   1.743       .  S
O766        C773   1.260       .  A
O766       Al774   1.886       .  S
O767        C776   1.270   1_655  A
O767      Al2070   1.946       .  S
O768      Al2070   1.914   1_455  S
O769        C776   1.275       .  A
O770      Al2057   1.769       .  S
O770       Al774   1.743       .  S
O771       C2068   1.274   1_455  A
C772       O2067   1.274       .  A
C773       C1121   1.492       .  S
Al774      O2063   1.946       .  S
Al774      O2064   1.914       .  S
O775       C2058   1.270       .  A
C777        C984   1.492       .  S
C777        O778   1.259       .  A
N779        C783   1.379       .  A
N779        C780   1.368       .  A
N779        C809   1.429   1_554  S
C780        C781   1.387       .  A
C781        C782   1.334       .  A
C781        H784   1.074       .  S
C782        C783   1.370       .  A
C782        H785   1.077       .  S
C783        C957   1.497       .  S
N786        C790   1.371       .  A
N786        C787   1.374       .  A
C787        C788   1.380       .  A
C787        C794   1.499       .  S
C788        C789   1.330       .  A
C788        H791   1.070       .  S
C789        C790   1.366       .  A
C789        H792   1.073       .  S
C790        C916   1.487       .  S
O793        C808   1.256       .  A
O793       Al801   1.872       .  S
C794        O795   1.266       .  A
O795       Al797   1.904       .  S
O796        C798   1.257       .  A
O796       Al797   1.876       .  S
Al797       O805   1.931       .  S
Al797       O807   1.997       .  S
Al797       O806   1.743       .  S
C798       C1142   1.493       .  S
C798        O811   1.268       .  A
O799       Al801   1.928       .  S
O800        C813   1.277       .  A
O800       Al810   2.007       .  S
Al801       O811   1.999       .  S
Al801       O806   1.744       .  S
O802        C809   1.269       .  A
O802       Al810   1.919       .  S
O803        C812   1.269       .  A
O803       Al810   1.917       .  S
O804       Al810   2.007       .  S
O807        C808   1.268       .  A
C808        C876   1.492       .  S
C812        N829   1.430       .  S
C813        C840   1.501       .  S
C813        O814   1.267       .  A
N815        C819   1.374       .  A
N815        C816   1.387       .  A
C816        C817   1.380       .  A
C816        C844   1.514       .  S
C817        C818   1.330       .  A
C817        H820   1.073       .  S
C818        C819   1.366       .  A
C818        H821   1.073       .  S
C819        C899   1.492       .  S
N822        C826   1.381       .  A
N822        C823   1.389       .  A
N822        C848   1.459       .  S
C823        C824   1.381       .  A
C824        C825   1.330       .  A
C824        H827   1.074       .  S
C825        C826   1.371       .  A
C825        H828   1.080       .  S
C826       C1003   1.494       .  S
N829        C833   1.370       .  A
N829        C830   1.379       .  A
C830        C831   1.369       .  A
C830       C1115   1.496       .  S
C831        C832   1.332       .  A
C831        H834   1.077       .  S
C832        C833   1.387       .  A
C832        H835   1.074       .  S
C833        C858   1.506       .  S
N836        C840   1.375       .  A
N836        C837   1.371       .  A
N836        C862   1.429       .  S
C837        C838   1.366       .  A
C837       C1219   1.488       .  S
C838        C839   1.330       .  A
C838        H841   1.074       .  S
C839        C840   1.380       .  A
C839        H842   1.070       .  S
O843        C858   1.255       .  A
O843       Al851   1.900       .  S
C844        O854   1.274       .  A
C844        O845   1.277       .  A
O845       Al847   2.014       .  S
O846        C848   1.271       .  A
O846       Al847   1.969       .  S
Al847       O855   1.900       .  S
Al847       O857   2.033       .  S
Al847       O856   1.779       .  S
C848        O861   1.266       .  A
O849        C859   1.258       .  A
O849       Al851   2.000       .  S
O850        C863   1.270       .  A
O850       Al860   2.012       .  S
Al851       O864   1.894       .  S
Al851       O861   1.978       .  S
Al851       O856   1.696       .  S
O852        C859   1.263       .  A
O852       Al860   1.894       .  S
O853        C862   1.272       .  A
O853       Al860   1.938       .  S
O854       Al860   1.912       .  S
O855        C862   1.269       .  A
O856       Al860   1.734       .  S
O857        C858   1.280       .  A
C859       C1265   1.504       .  S
C863        C869   1.505       .  S
C863        O864   1.258       .  A
N865        C869   1.381       .  A
N865        C866   1.386       .  A
N865        C917   1.441       .  S
C866        C867   1.381       .  A
C866        C880   1.517       .  S
C867        C868   1.336       .  A
C867        H870   1.072       .  S
C868        C869   1.373       .  A
C868        H871   1.079       .  S
N872        C876   1.376       .  A
N872       C2169   1.382       .  A
N872        C884   1.441       .  S
C873       N2168   1.382       .  A
C873        C874   1.380       .  A
C873        C902   1.509       .  S
C874       C2171   1.330   1_455  A
C874        H877   1.073       .  S
C875       C2170   1.330       .  A
C875        C876   1.368       .  A
C875        H878   1.075       .  S
O879        C894   1.272       .  A
O879       Al887   1.921       .  S
C880        O890   1.271       .  A
C880        O881   1.277       .  A
O881      Al2179   2.017   1_455  S
O882        C884   1.274       .  A
O882       Al883   1.939       .  S
Al883      O2177   2.017       .  S
Al883       O891   1.940       .  S
Al883       O893   2.017       .  S
Al883       O892   1.762       .  S
C884        O897   1.271       .  A
O885       C2191   1.271       .  A
O885       Al887   2.014       .  S
O886        C899   1.268       .  A
O886      Al2192   2.002       .  S
Al887       O900   1.874       .  S
Al887       O897   1.942       .  S
Al887       O892   1.744       .  S
O888        C895   1.255       .  A
O888       Al896   1.872       .  S
O889        C898   1.272       .  A
O889       Al896   1.950   1_655  S
O890       Al896   1.911       .  S
O891       C2194   1.275       .  A
O892      Al2192   1.742       .  S
O893        C894   1.276       .  A
C894        C963   1.516       .  S
C895       C1082   1.496       .  S
C895       O2181   1.271       .  A
Al896      O2182   2.002   1_455  S
Al896      O2188   1.742   1_455  S
C898       N2262   1.444       .  S
C898       O2187   1.275   1_655  A
C899        O900   1.254       .  A
O901        C916   1.250       .  A
O901       Al909   1.869       .  S
C902        O912   1.277       .  A
C902        O903   1.270       .  A
O903       Al905   1.911       .  S
O904        C906   1.257       .  A
O904       Al905   1.877       .  S
Al905       O913   1.950       .  S
Al905       O915   2.000       .  S
Al905       O914   1.746       .  S
C906       C1089   1.501       .  S
C906        O919   1.271       .  A
O907        C917   1.272       .  A
O907       Al909   1.940       .  S
O908        C921   1.276       .  A
O908       Al918   2.012       .  S
Al909       O922   1.915       .  S
Al909       O919   2.016       .  S
Al909       O914   1.745       .  S
O910        C917   1.274       .  A
O910       Al918   1.946       .  S
O911        C920   1.274       .  A
O911       Al918   1.940       .  S
O912       Al918   2.013       .  S
O913        C920   1.274       .  A
O914       Al918   1.767       .  S
O915        C916   1.268       .  A
C920        N923   1.445   1_556  S
C921        C934   1.513       .  S
C921        O922   1.272       .  A
N923        C927   1.383       .  A
N923        C924   1.378       .  A
C924        C925   1.373       .  A
C924       C1175   1.497       .  S
C925        C926   1.331       .  A
C925        H928   1.081       .  S
C926        C927   1.384       .  A
C926        H929   1.077       .  S
C927        C952   1.507       .  S
N930        C934   1.386       .  A
N930        C931   1.377       .  A
N930        C956   1.443       .  S
C931        C932   1.368       .  A
C931       C1223   1.499       .  S
C932        C933   1.331       .  A
C932        H935   1.073       .  S
C933        C934   1.381       .  A
C933        H936   1.079       .  S
O937        C952   1.270       .  A
O937       Al945   1.913       .  S
C938       C1046   1.524       .  S
C938        O948   1.273       .  A
C938        O939   1.277       .  A
O939       Al941   2.026       .  S
O940        C942   1.270       .  A
O940       Al941   1.921       .  S
Al941       O949   1.935       .  S
Al941       O951   2.009       .  S
Al941       O950   1.769       .  S
C942       N1052   1.442       .  S
C942        O955   1.275       .  A
O943        C953   1.270       .  A
O943       Al945   2.008       .  S
O944        C957   1.269       .  A
O944       Al954   2.002       .  S
Al945       O958   1.879       .  S
Al945       O955   1.952       .  S
Al945       O950   1.750       .  S
O946        C953   1.256       .  A
O946       Al954   1.877       .  S
O947        C956   1.271       .  A
O947       Al954   1.949   1_556  S
O948       Al954   1.926       .  S
O949        C956   1.273   1_554  A
O950       Al954   1.745       .  S
O951        C952   1.278       .  A
C953       C1146   1.500       .  S
C957        O958   1.259       .  A
N959        C963   1.386       .  A
N959        C960   1.377       .  A
N959        C988   1.440       .  S
C960        C961   1.365       .  A
C960       C1111   1.499       .  S
C961        C962   1.333       .  A
C961        H964   1.074       .  S
C962        C963   1.381       .  A
C962        H965   1.076       .  S
N966        C970   1.386       .  A
N966       C2263   1.376       .  A
N966       C2194   1.444       .  S
C967       N2262   1.376   1_455  A
C967        C968   1.370       .  A
C967       C1280   1.495       .  S
C968       C2265   1.325   1_455  A
C968        H971   1.074       .  S
C969       C2264   1.325       .  A
C969        C970   1.383       .  A
C969        H972   1.077       .  S
C970        C992   1.510       .  S
N973        C977   1.375       .  A
N973        C974   1.381       .  A
N973       C1014   1.440       .  S
C974        C975   1.382       .  A
C974       C1006   1.496       .  S
C975        C976   1.326       .  A
C975        H978   1.077       .  S
C976        C977   1.371       .  A
C976        H979   1.072       .  S
N980        C984   1.378       .  A
N980        C981   1.375       .  A
N980       C1002   1.440       .  S
C981        C982   1.385       .  A
C981       C1010   1.501       .  S
C982        C983   1.329       .  A
C982        H985   1.078       .  S
C983        C984   1.370       .  A
C983        H986   1.075       .  S
O987       C1002   1.272       .  A
O987       Al995   1.942       .  S
C988        O989   1.267       .  A
O989       Al991   1.911       .  S
O990        C992   1.276       .  A
O990       Al991   2.015       .  S
Al991       O999   1.992       .  S
Al991      O1001   1.936       .  S
Al991      O1000   1.775       .  S
C992       O1005   1.269       .  A
O993       C1003   1.258   1_545  A
O994       C1007   1.266       .  A
O994      Al1004   1.931       .  S
Al995      O1005   1.916       .  S
Al995      O1000   1.741       .  S
O996       C1003   1.261       .  A
O996      Al1004   1.972       .  S
O997       C1006   1.272       .  A
O997      Al1004   1.911       .  S
O998      Al1004   1.954   1_545  S
O1001      C1002   1.271       .  A
C1007      C1236   1.504       .  S
C1007      O1008   1.270       .  A
O1009      C1024   1.275       .  A
C1010      O1020   1.263       .  A
O1011     Al1013   2.019       .  S
O1012      C1014   1.268       .  A
O1012     Al1013   1.908       .  S
Al1013     O1021   1.919       .  S
Al1013     O1023   2.024       .  S
C1014      O1027   1.275   1_565  A
O1015      C1025   1.274       .  A
O1015     Al1017   2.016       .  S
O1016      C1029   1.266       .  A
O1016     Al1026   2.006       .  S
Al1017     O1030   1.879       .  S
Al1017     O1022   1.734       .  S
O1018      C1025   1.255       .  A
O1018     Al1026   1.875       .  S
O1019     Al1026   1.867       .  S
O1020     Al1026   1.903       .  S
O1021      C1028   1.263       .  A
O1022     Al1026   1.737       .  S
O1023      C1024   1.277       .  A
C1024      C1035   1.528       .  S
C1025      C1226   1.499       .  S
C1028      N1038   1.408       .  S
C1029      O1030   1.258       .  A
N1031      C2331   1.396       .  A
N1031      C1032   1.375       .  A
N1031      C1078   1.445       .  S
C1032      C1033   1.366       .  A
C1032      C1255   1.498       .  S
C1033      C2330   1.334       .  A
C1033      H1036   1.077       .  S
C1034      C2329   1.334   1_455  A
C1034      C1035   1.384       .  A
C1034      H1037   1.074       .  S
C1035      N2327   1.396   1_455  A
N1038      C1042   1.364       .  A
N1038      C1039   1.373       .  A
C1039      C1040   1.346       .  A
C1039      C1186   1.505       .  S
C1040      C1041   1.352       .  A
C1040      H1043   1.053       .  S
C1041      C1042   1.314       .  A
C1041      H1044   1.057       .  S
C1042      C1079   1.466       .  S
N1045      C1049   1.392       .  A
N1045      C2342   1.395   1_455  A
N1045      C1075   1.461   1_455  S
C1046      N2341   1.395       .  A
C1046      C1047   1.378       .  A
C1047      C2344   1.321       .  A
C1047      H1050   1.073       .  S
C1048      C2343   1.321   1_455  A
C1048      C1049   1.368       .  A
C1048      H1051   1.074       .  S
N1052      C1056   1.375       .  A
N1052      C1053   1.376       .  A
C1053      C1054   1.380       .  A
C1053      C1060   1.491       .  S
C1054      C1055   1.329       .  A
C1054      H1057   1.079       .  S
C1055      C1056   1.372       .  A
C1055      H1058   1.075       .  S
O1059      C1074   1.244       .  A
O1059     Al1067   1.876       .  S
C1060      O1070   1.272       .  A
C1060      O1061   1.270       .  A
O1061     Al1063   1.912       .  S
O1062      C1064   1.256       .  A
O1062     Al1063   1.875       .  S
Al1063     O1071   1.958       .  S
Al1063     O2369   2.011       .  S
Al1063     O2368   1.747       .  S
C1064      C1153   1.494       .  S
C1064      O2373   1.274       .  A
O1065      C1075   1.273       .  A
O1065     Al1067   1.971   1_655  S
O1066      C1079   1.259       .  A
O1066     Al2372   1.899   1_455  S
Al1067     O1080   1.868       .  S
Al1067     O1077   2.018   1_455  S
Al1067     O1072   1.738   1_455  S
O1068      C1075   1.271   1_455  A
O1068     Al2372   1.950   1_455  S
O1069      C1078   1.280       .  A
O1069     Al1076   1.939       .  S
O1070     Al1076   1.986       .  S
O1071      C1078   1.276       .  A
O1072     Al2359   1.747       .  S
O1072     Al2372   1.764       .  S
O1073      C1074   1.265       .  A
O1073     Al2359   2.011   1_455  S
Al1076     O2362   1.899       .  S
Al1076     O2364   1.950       .  S
Al1076     O2368   1.764       .  S
O1077      C2360   1.274       .  A
C1079      O1080   1.278       .  A
N1081      C1085   1.382       .  A
N1081      C1082   1.379       .  A
N1081      C1204   1.445       .  S
C1082      C1083   1.374       .  A
C1083      C1084   1.331       .  A
C1083      H1086   1.081       .  S
C1084      C1085   1.384       .  A
C1084      H1087   1.077       .  S
C1085      C1110   1.506       .  S
N1088      C1089   1.378       .  A
N1088      C1114   1.445       .  S
C1089      C1090   1.368       .  A
C1090      H1093   1.073       .  S
C1091      C1092   1.381       .  A
C1091      H1094   1.079       .  S
C1092      C1208   1.514       .  S
O1095      C1110   1.270       .  A
O1095     Al1103   1.913       .  S
C1096      C1262   1.527       .  S
C1096      O1106   1.273       .  A
C1096      O1097   1.278       .  A
O1097     Al1099   2.031       .  S
O1098     Al1099   1.924       .  S
Al1099     O1107   1.942       .  S
Al1099     O1108   1.768       .  S
C1100      O1113   1.275       .  A
O1101      C1111   1.270       .  A
O1102     Al1112   2.000       .  S
Al1103     O1116   1.880       .  S
Al1103     O1113   1.952   1_565  S
O1104      C1111   1.256       .  A
O1104     Al1112   1.878       .  S
O1105      C1114   1.271       .  A
O1105     Al1112   1.949       .  S
O1106     Al1112   1.925       .  S
O1107      C1114   1.274       .  A
O1108     Al1112   1.745       .  S
O1109      C1110   1.278       .  A
C1115      O1116   1.259       .  A
N1117      C1121   1.379       .  A
N1117      C1197   1.441       .  S
C1118      C1119   1.386       .  A
C1118      C1240   1.500       .  S
C1119      H1122   1.079       .  S
C1120      C1121   1.370       .  A
C1120      H1123   1.076       .  S
N1124      C1128   1.376       .  A
N1124      C1125   1.380       .  A
N1124      C1244   1.441       .  S
C1125      C1126   1.382       .  A
C1125      C1182   1.497       .  S
C1126      C1127   1.327       .  A
C1126      H1129   1.077       .  S
C1127      C1128   1.371       .  A
C1127      H1130   1.072       .  S
N1131      C1135   1.381       .  A
N1131      C1132   1.385       .  A
N1131      C1218   1.441   1_554  S
C1132      C1133   1.380       .  A
C1132      C1160   1.515       .  S
C1133      C1134   1.335       .  A
C1133      H1136   1.071       .  S
C1134      C1135   1.373       .  A
C1134      H1137   1.079       .  S
N1138      C1142   1.377       .  A
N1138      C1139   1.381       .  A
N1138      C1164   1.441       .  S
C1139      C1140   1.380       .  A
C1139      C1222   1.508       .  S
C1140      C1141   1.331       .  A
C1140      H1143   1.073       .  S
C1141      C1142   1.368       .  A
C1141      H1144   1.076       .  S
N1145      C1149   1.387       .  A
C1146      C1147   1.365       .  A
C1147      H1150   1.074       .  S
C1148      C1149   1.380       .  A
C1148      H1151   1.075   1_554  S
C1149      C1174   1.516       .  S
N1152      C1156   1.386       .  A
N1152      C1153   1.376       .  A
N1152      C1178   1.444       .  S
C1153      C1154   1.370       .  A
C1154      C1155   1.324       .  A
C1154      H1157   1.075       .  S
C1155      C1156   1.384       .  A
C1155      H1158   1.077       .  S
C1156      C1201   1.509       .  S
O1159      C1174   1.273       .  A
O1159     Al2463   1.922       .  S
C1160      O1170   1.272       .  A
C1160      O2457   1.277   1_455  A
O1161      C2456   1.277       .  A
O1161     Al1163   2.013       .  S
O1162      C1164   1.274       .  A
O1162     Al1163   1.939   1_556  S
Al1163     O1171   1.936       .  S
Al1163     O1173   2.014       .  S
Al1163     O2468   1.764       .  S
C1164      O1177   1.271       .  A
O1165      C1175   1.271       .  A
O1165     Al1167   2.014       .  S
O1166      C1179   1.268       .  A
O1166     Al1176   2.001       .  S
Al1167     O2455   1.922   1_455  S
Al1167     O1180   1.870       .  S
Al1167     O2473   1.941   1_454  S
Al1167     O1172   1.745   1_455  S
O1168      C1175   1.255       .  A
O1168     Al1176   1.870       .  S
O1169      C2474   1.273       .  A
O1169     Al1176   1.952   1_655  S
O1170     Al1176   1.910       .  S
O1171      C1178   1.274       .  A
O1172     Al2459   1.764       .  S
O1172     Al1176   1.741   1_655  S
O1173      C1174   1.276       .  A
O1177     Al2463   1.941   1_556  S
C1178      O2465   1.273       .  A
C1179      O1180   1.254       .  A
O1181      C1196   1.259       .  A
O1181     Al1189   1.886       .  S
C1182      O1192   1.277       .  A
C1182      O1183   1.272       .  A
O1183     Al1185   1.911       .  S
O1184      C1186   1.266       .  A
O1184     Al1185   1.929       .  S
Al1185     O1193   1.951   1_565  S
O1187      C1197   1.273       .  A
O1187     Al1189   1.944       .  S
O1188      C1201   1.276       .  A
O1188     Al1198   2.015       .  S
Al1189     O1202   1.916       .  S
Al1189     O1199   1.992       .  S
Al1189     O1194   1.741       .  S
O1190      C1197   1.271       .  A
O1190     Al1198   1.938       .  S
O1191      C1200   1.267       .  A
O1193      C1200   1.268       .  A
O1194     Al1198   1.776       .  S
O1195      C1196   1.260       .  A
C1201      O1202   1.269       .  A
O1203      C1218   1.271       .  A
O1203     Al1211   1.941   1_455  S
C1204      O2510   1.274       .  A
C1204      O1205   1.274       .  A
O1205     Al1207   1.941       .  S
O1206      C1208   1.276       .  A
O1206     Al1207   2.010       .  S
Al1207     O1215   2.012       .  S
Al1207     O1217   1.945       .  S
Al1207     O1216   1.768       .  S
C1208      O1221   1.274       .  A
O1209      C1219   1.250       .  A
O1209     Al2507   1.865       .  S
O1210      C1223   1.256       .  A
O1210     Al1220   1.873       .  S
Al1211     O2505   1.865       .  S
Al1211     O2520   2.013       .  S
Al1211     O1221   1.917   1_655  S
Al1211     O1216   1.746   1_655  S
O1212      C1219   1.269       .  A
O1212     Al1220   2.002       .  S
O1213      C1222   1.270       .  A
O1213     Al1220   1.912       .  S
O1214      C2500   1.274       .  A
O1214     Al1220   1.950       .  S
O1215      C2518   1.278   1_455  A
O1216     Al2516   1.745   1_455  S
O1217      C1218   1.273       .  A
Al1220     O2512   1.745       .  S
C1222      O2511   1.278       .  A
C1223      O1224   1.271       .  A
O1224     Al2507   2.013       .  S
N1225      C1229   1.396       .  A
N1225      C1226   1.375       .  A
N1225      C1294   1.446       .  S
C1226      C1227   1.366       .  A
C1227      C1228   1.334       .  A
C1227      H1230   1.077       .  S
C1228      C1229   1.384       .  A
C1228      H1231   1.074       .  S
C1229      C1254   1.528       .  S
N1232      C1236   1.374       .  A
N1232      C1233   1.363       .  A
N1232      C1258   1.409       .  S
C1233      C1234   1.315       .  A
C1233      C1295   1.465       .  S
C1234      C1235   1.351       .  A
C1234      H1237   1.058       .  S
C1235      C1236   1.347       .  A
C1235      H1238   1.054       .  S
O1239      C1254   1.276       .  A
O1239     Al1247   1.923       .  S
C1240      O1250   1.262       .  A
C1240      O1241   1.281       .  A
O1241     Al1243   2.021       .  S
O1242      C1244   1.268       .  A
O1242     Al1243   1.907       .  S
Al1243     O1251   1.921       .  S
Al1243     O1253   2.024       .  S
Al1243     O1252   1.774       .  S
C1244      O1257   1.275       .  A
O1245      C1255   1.274       .  A
O1245     Al1247   2.015       .  S
O1246      C1259   1.266       .  A
O1246     Al1256   2.005       .  S
Al1247     O1260   1.878       .  S
Al1247     O1257   1.957       .  S
Al1247     O1252   1.735       .  S
O1248      C1255   1.254       .  A
O1248     Al1256   1.874       .  S
O1249      C1258   1.270       .  A
O1249     Al1256   1.867       .  S
O1250     Al1256   1.901       .  S
O1251      C1258   1.264       .  A
O1252     Al1256   1.737       .  S
O1253      C1254   1.277       .  A
C1259      O1260   1.259       .  A
N1261      C1265   1.392       .  A
N1261      C1262   1.396       .  A
N1261      C1291   1.461       .  S
C1262      C1263   1.379       .  A
C1263      C1264   1.321       .  A
C1263      H1266   1.072       .  S
C1264      C1265   1.367       .  A
C1264      H1267   1.076       .  S
N1268      C1272   1.377       .  A
C1269      C1270   1.372       .  A
C1270      H1273   1.075       .  S
C1271      C1272   1.380       .  A
C1271      H1274   1.078       .  S
C1272      C1276   1.493       .  S
O1275      C1290   1.244       .  A
O1275     Al1283   1.877       .  S
C1276      O1286   1.273       .  A
C1276      O1277   1.269       .  A
O1277     Al1279   1.913       .  S
O1278      C1280   1.257       .  A
O1278     Al1279   1.876       .  S
Al1279     O1287   1.957       .  S
Al1279     O1289   2.012       .  S
Al1279     O1288   1.746       .  S
C1280      O1293   1.274       .  A
O1281      C1291   1.273       .  A
O1281     Al1283   1.968       .  S
O1282      C1295   1.259       .  A
O1282     Al1292   1.900       .  S
Al1283     O1296   1.866       .  S
Al1283     O1293   2.019       .  S
Al1283     O1288   1.739       .  S
O1284      C1291   1.271       .  A
O1284     Al1292   1.951       .  S
O1285      C1294   1.281       .  A
O1285     Al1292   1.943       .  S
O1286     Al1292   1.989       .  S
O1287      C1294   1.276       .  A
O1288     Al1292   1.764       .  S
O1289      C1290   1.265       .  A
C1295      O1296   1.278       .  A
N1297      C1301   1.370       .  A
N1297      C1298   1.386       .  A
N1297      C1424   1.441       .  S
C1298      C1299   1.385       .  A
C1298      C1331   1.512       .  S
C1299      C1300   1.337       .  A
C1299      H1302   1.079       .  S
C1300      C1301   1.368       .  A
C1300      H1303   1.082       .  S
C1301      C1938   1.491       .  S
N1304      C1308   1.382       .  A
N1304      C1305   1.388       .  A
N1304      C1330   1.453       .  S
C1305      C1306   1.381       .  A
C1305      C1420   1.513       .  S
C1306      C1307   1.326       .  A
C1306      H1309   1.076       .  S
C1307      C1308   1.371       .  A
C1307      H1310   1.075       .  S
C1308      C1907   1.498       .  S
O1311      C1326   1.252       .  A
O1311     Al1319   1.862       .  S
C1312      C1471   1.512       .  S
C1312      O1322   1.274       .  A
C1312      O1313   1.271       .  A
O1314      C1316   1.254       .  A
O1314     Al1315   1.875       .  S
Al1315     O1325   2.013       .  S
C1316      C1917   1.491       .  S
C1316      O1329   1.269       .  A
O1317     Al1319   1.941       .  S
O1318     Al1328   2.006       .  S
Al1319     O1332   1.919       .  S
Al1319     O1329   2.007       .  S
O1320      C1327   1.277       .  A
O1320     Al1328   1.944       .  S
O1321      C1330   1.279       .  A
O1321     Al1328   1.962       .  S
O1322     Al1328   2.011       .  S
O1323      C1330   1.275       .  A
O1324     Al1328   1.763       .  S
O1325      C1326   1.271       .  A
C1326      C1625   1.491       .  S
C1327      N1463   1.443       .  S
C1331      O1332   1.273       .  A
N1333      C1337   1.374       .  A
N1333      C1334   1.386       .  A
N1333      C1388   1.442       .  S
C1334      C1335   1.380       .  A
C1334      C1348   1.515       .  S
C1335      C1336   1.331       .  A
C1335      H1338   1.072   1_554  S
C1336      C1337   1.366       .  A
C1336      H1339   1.074       .  S
C1337      C1827   1.492       .  S
N1340      C1344   1.382       .  A
N1340      C1341   1.389       .  A
N1340      C1352   1.460       .  S
C1341      C1342   1.381       .  A
C1341      C1389   1.511       .  S
C1342      C1343   1.330       .  A
C1342      H1345   1.074       .  S
C1343      C1344   1.370       .  A
C1343      H1346   1.080       .  S
C1344      C1844   1.493       .  S
O1347      C2010   1.254       .  A
O1347     Al1355   1.899       .  S
C1348      O1358   1.274       .  A
C1348      O1349   1.278       .  A
O1349     Al1351   2.014       .  S
O1350      C1352   1.271       .  A
O1350     Al1351   1.970       .  S
Al1351     O1359   1.901   1_554  S
Al1351     O1361   2.033       .  S
Al1351     O1360   1.779       .  S
C1352      O1365   1.266       .  A
O1353      C1363   1.258       .  A
O1353     Al1355   1.999       .  S
O1354      C1367   1.270       .  A
O1354     Al2012   2.012       .  S
Al1355     O1368   1.891       .  S
Al1355     O2013   1.981       .  S
Al1355     O2008   1.695       .  S
O1356      C1363   1.262       .  A
O1356     Al2012   1.891       .  S
O1357      C1366   1.271       .  A
O1357     Al1364   1.936   1_556  S
O1358     Al1364   1.912       .  S
O1359      C1366   1.269       .  A
O1360     Al2003   1.695   1_545  S
O1360     Al1364   1.735       .  S
O1361      C1362   1.280       .  A
C1362      C2076   1.506   1_545  S
C1362      O1995   1.254       .  A
C1363      C1697   1.504       .  S
Al1364     O2002   2.012   1_545  S
Al1364     O2004   1.891       .  S
O1365     Al2003   1.981   1_545  S
C1366      N1434   1.429       .  S
C1367      C1783   1.503       .  S
C1367      O1368   1.257       .  A
O1369      C1384   1.253       .  A
O1369     Al1377   1.874       .  S
C1370      C1402   1.511       .  S
C1370      O1380   1.275       .  A
C1370      O1371   1.274       .  A
O1371     Al1373   1.919       .  S
O1372      C1374   1.253       .  A
O1372     Al1373   1.862       .  S
Al1373     O1381   1.940       .  S
Al1373     O1383   2.007       .  S
Al1373     O1382   1.749       .  S
C1374      C1776   1.492       .  S
C1374      O1387   1.272       .  A
O1375      C1385   1.275       .  A
O1375     Al1377   1.954       .  S
O1376      C1389   1.274       .  A
O1376     Al1386   2.009       .  S
Al1377     O1390   1.912       .  S
Al1377     O1387   2.013       .  S
Al1377     O1382   1.742       .  S
O1378      C1385   1.279       .  A
O1378     Al1386   1.962       .  S
O1379      C1388   1.277       .  A
O1379     Al1386   1.943       .  S
O1380     Al1386   2.004       .  S
O1381      C1388   1.269       .  A
O1382     Al1386   1.763       .  S
O1383      C1384   1.269       .  A
C1384      C1704   1.491       .  S
C1385      N1391   1.453       .  S
C1389      O1390   1.271       .  A
N1391      C1395   1.388       .  A
N1391      C1392   1.382       .  A
C1392      C1393   1.371       .  A
C1392      C1677   1.498       .  S
C1393      C1394   1.326       .  A
C1393      H1396   1.076       .  S
C1394      C1395   1.381       .  A
C1394      H1397   1.077       .  S
C1395      C1406   1.512       .  S
N1398      C1402   1.386       .  A
N1398      C1399   1.370       .  A
N1398      C1410   1.441       .  S
C1399      C1400   1.367       .  A
C1399      C1722   1.490       .  S
C1400      C1401   1.336       .  A
C1400      H1403   1.082       .  S
C1401      C1402   1.384       .  A
C1401      H1404   1.078       .  S
O1405      C1420   1.270       .  A
O1405     Al1413   1.914       .  S
C1406      O1416   1.270       .  A
C1406      O1407   1.274       .  A
O1407     Al1409   2.012       .  S
O1408      C1410   1.275       .  A
O1408     Al1409   1.934       .  S
Al1409     O1417   1.933       .  S
Al1409     O1419   2.013       .  S
O1411      C1421   1.266       .  A
O1411     Al1413   1.991       .  S
O1412      C1425   1.267       .  A
O1412     Al1422   1.993       .  S
Al1413     O1426   1.886       .  S
Al1413     O1423   1.945   1_655  S
Al1413     O1418   1.743   1_655  S
O1414      C1421   1.260       .  A
O1414     Al1422   1.886       .  S
O1415      C1424   1.270       .  A
O1417      C1424   1.275       .  A
O1418     Al1422   1.743   1_455  S
C1421      C1769   1.492       .  S
C1425      C1632   1.492       .  S
C1425      O1426   1.259       .  A
N1427      C1431   1.379       .  A
N1427      C1428   1.368       .  A
N1427      C1457   1.429   1_554  S
C1428      C1429   1.387       .  A
C1428      C2010   1.506       .  S
C1429      C1430   1.334       .  A
C1429      H1432   1.074       .  S
C1430      C1431   1.370       .  A
C1430      H1433   1.077       .  S
C1431      C1605   1.497       .  S
N1434      C1438   1.371       .  A
N1434      C1435   1.374       .  A
C1435      C1436   1.380       .  A
C1435      C1442   1.499       .  S
C1436      C1437   1.330       .  A
C1436      H1439   1.070       .  S
C1437      C1438   1.366       .  A
C1437      H1440   1.073       .  S
C1438      C1564   1.487       .  S
O1441      C1456   1.256       .  A
O1441     Al1449   1.872       .  S
C1442      O2100   1.277   1_545  A
C1442      O1443   1.266       .  A
O1443     Al1445   1.904       .  S
O1444      C1446   1.257       .  A
O1444     Al1445   1.876       .  S
Al1445     O1453   1.931       .  S
Al1445     O1455   1.997       .  S
Al1445     O1454   1.743       .  S
C1446      C1790   1.493       .  S
C1446      O1459   1.268       .  A
O1447      C2105   1.271   1_545  A
O1447     Al1449   1.928       .  S
O1448      C1461   1.277       .  A
O1448     Al1458   2.007       .  S
Al1449     O2110   1.908   1_545  S
Al1449     O1459   1.999       .  S
Al1449     O1454   1.744       .  S
O1450      C1457   1.269       .  A
O1450     Al1458   1.919       .  S
O1451      C1460   1.269       .  A
O1451     Al1458   1.917       .  S
O1452      C2090   1.277       .  A
O1452     Al1458   2.007       .  S
O1453      C2108   1.272   1_545  A
O1454     Al2106   1.768   1_545  S
O1455      C1456   1.268       .  A
C1456      C1524   1.492       .  S
C1457      O2095   1.271       .  A
Al1458     O2102   1.768       .  S
C1460      N1477   1.430       .  S
C1460      O2101   1.272       .  A
C1461      C1488   1.501       .  S
C1461      O1462   1.267       .  A
O1462     Al2097   1.908       .  S
N1463      C1467   1.374       .  A
N1463      C1464   1.387       .  A
C1464      C1465   1.380       .  A
C1464      C1492   1.514       .  S
C1465      C1466   1.330       .  A
C1465      H1468   1.073       .  S
C1466      C1467   1.366       .  A
C1466      H1469   1.073       .  S
C1467      C1547   1.492       .  S
N1470      C1474   1.381       .  A
N1470      C1471   1.389       .  A
N1470      C1496   1.459       .  S
C1471      C1472   1.381       .  A
C1472      C1473   1.330       .  A
C1472      H1475   1.074       .  S
C1473      C1474   1.371       .  A
C1473      H1476   1.080       .  S
C1474      C1651   1.494       .  S
N1477      C1481   1.370       .  A
N1477      C1478   1.379       .  A
C1478      C1479   1.369       .  A
C1478      C1763   1.496       .  S
C1479      C1480   1.332       .  A
C1479      H1482   1.077       .  S
C1480      C1481   1.387       .  A
C1480      H1483   1.074       .  S
C1481      C1506   1.506       .  S
N1484      C1488   1.375       .  A
N1484      C1485   1.371       .  A
N1484      C1510   1.429       .  S
C1485      C1486   1.366       .  A
C1485      C1867   1.488       .  S
C1486      C1487   1.330       .  A
C1486      H1489   1.074       .  S
C1487      C1488   1.380       .  A
C1487      H1490   1.070       .  S
O1491      C1506   1.255       .  A
O1491     Al1499   1.900       .  S
C1492      O1502   1.274       .  A
C1492      O1493   1.277       .  A
O1493     Al1495   2.014       .  S
O1494      C1496   1.271       .  A
O1494     Al1495   1.969       .  S
Al1495     O1503   1.900       .  S
Al1495     O1505   2.033       .  S
Al1495     O1504   1.779       .  S
C1496      O1509   1.266       .  A
O1497      C1507   1.258       .  A
O1497     Al1499   2.000       .  S
O1498      C1511   1.270       .  A
O1498     Al1508   2.012       .  S
Al1499     O1512   1.894       .  S
Al1499     O1509   1.978       .  S
Al1499     O1504   1.696       .  S
O1500      C1507   1.263       .  A
O1500     Al1508   1.894       .  S
O1501      C1510   1.272       .  A
O1501     Al1508   1.938       .  S
O1502     Al1508   1.912       .  S
O1503      C1510   1.269       .  A
O1504     Al1508   1.734       .  S
O1505      C1506   1.280       .  A
C1507      C1913   1.504       .  S
C1511      C1517   1.505       .  S
C1511      O1512   1.258       .  A
N1513      C1517   1.381       .  A
N1513      C1514   1.386       .  A
N1513      C1565   1.441       .  S
C1514      C1515   1.381       .  A
C1514      C1528   1.517       .  S
C1515      C1516   1.336       .  A
C1515      H1518   1.072       .  S
C1516      C1517   1.373       .  A
C1516      H1519   1.079       .  S
N1520      C1524   1.376   1_455  A
N1520      C1532   1.441       .  S
C1521      C1522   1.380       .  A
C1521      C1550   1.509       .  S
C1522      H1525   1.073       .  S
C1523      C1524   1.368       .  A
C1523      H1526   1.075       .  S
O1527      C1542   1.272       .  A
O1527     Al1535   1.921       .  S
C1528      O1538   1.271       .  A
C1528      O1529   1.277       .  A
O1530      C1532   1.274   1_655  A
O1530     Al1531   1.939       .  S
Al1531     O1539   1.940   1_655  S
Al1531     O1541   2.017       .  S
Al1531     O1540   1.762       .  S
C1532      O1545   1.271       .  A
O1533     Al1535   2.014   1_455  S
O1534      C1547   1.268       .  A
Al1535     O1548   1.874       .  S
Al1535     O1545   1.942   1_655  S
Al1535     O1540   1.744       .  S
O1536      C1543   1.255       .  A
O1536     Al1544   1.872       .  S
O1537      C1546   1.272       .  A
O1537     Al1544   1.950       .  S
O1538     Al1544   1.911       .  S
O1541      C1542   1.276       .  A
C1542      C1611   1.516       .  S
C1543      C1730   1.496       .  S
C1547      O1548   1.254       .  A
O1549      C1564   1.250       .  A
O1549     Al1557   1.869       .  S
C1550      O1560   1.277       .  A
C1550      O1551   1.270       .  A
O1551     Al1553   1.911       .  S
O1552      C1554   1.257       .  A
O1552     Al1553   1.877       .  S
Al1553     O1561   1.950       .  S
Al1553     O1563   2.000       .  S
Al1553     O1562   1.746       .  S
C1554      C1737   1.501       .  S
C1554      O1567   1.271       .  A
O1555      C1565   1.272       .  A
O1555     Al1557   1.940       .  S
O1556      C1569   1.276       .  A
O1556     Al1566   2.012       .  S
Al1557     O1570   1.915       .  S
Al1557     O1567   2.016       .  S
Al1557     O1562   1.745       .  S
O1558      C1565   1.274       .  A
O1558     Al1566   1.946       .  S
O1559      C1568   1.274       .  A
O1559     Al1566   1.940       .  S
O1560     Al1566   2.013       .  S
O1561      C1568   1.274       .  A
O1562     Al1566   1.767       .  S
O1563      C1564   1.268       .  A
C1568      N1571   1.445   1_556  S
C1569      C1582   1.513       .  S
C1569      O1570   1.272       .  A
N1571      C1575   1.383       .  A
N1571      C1572   1.378       .  A
C1572      C1573   1.373       .  A
C1572      C1823   1.497       .  S
C1573      C1574   1.331       .  A
C1573      H1576   1.081       .  S
C1574      C1575   1.384       .  A
C1574      H1577   1.077       .  S
C1575      C1600   1.507       .  S
N1578      C1582   1.386       .  A
N1578      C1579   1.377       .  A
N1578      C1604   1.443       .  S
C1579      C1580   1.368       .  A
C1579      C1871   1.499       .  S
C1580      C1581   1.331       .  A
C1580      H1583   1.073       .  S
C1581      C1582   1.381       .  A
C1581      H1584   1.079       .  S
O1585      C1600   1.270       .  A
O1585     Al1593   1.913       .  S
C1586      C1694   1.524       .  S
C1586      O1596   1.273       .  A
C1586      O1587   1.277       .  A
O1587     Al1589   2.026       .  S
O1588      C1590   1.270       .  A
O1588     Al1589   1.921       .  S
Al1589     O1597   1.935       .  S
Al1589     O1599   2.009       .  S
Al1589     O1598   1.769       .  S
C1590      N1700   1.442       .  S
C1590      O1603   1.275       .  A
O1591      C1601   1.270       .  A
O1591     Al1593   2.008       .  S
O1592      C1605   1.269       .  A
O1592     Al1602   2.002       .  S
Al1593     O1606   1.879       .  S
Al1593     O1603   1.952       .  S
Al1593     O1598   1.750       .  S
O1594      C1601   1.256       .  A
O1594     Al1602   1.877       .  S
O1595      C1604   1.271       .  A
O1595     Al1602   1.949   1_556  S
O1596     Al1602   1.926       .  S
O1597      C1604   1.273   1_554  A
O1598     Al1602   1.745       .  S
O1599      C1600   1.278       .  A
C1601      C1794   1.500       .  S
C1605      O1606   1.259       .  A
N1607      C1611   1.386       .  A
N1607      C1608   1.377       .  A
N1607      C1636   1.440       .  S
C1608      C1609   1.365       .  A
C1608      C1759   1.499       .  S
C1609      C1610   1.333       .  A
C1609      H1612   1.074       .  S
C1610      C1611   1.381       .  A
C1610      H1613   1.076       .  S
N1614      C1618   1.386       .  A
C1615      C1616   1.370       .  A
C1615      C1928   1.495       .  S
C1616      H1619   1.074       .  S
C1617      C1618   1.383       .  A
C1617      H1620   1.077       .  S
C1618      C1640   1.510       .  S
N1621      C1625   1.375       .  A
N1621      C1622   1.381       .  A
N1621      C1662   1.440       .  S
C1622      C1623   1.382       .  A
C1622      C1654   1.496       .  S
C1623      C1624   1.326       .  A
C1623      H1626   1.077       .  S
C1624      C1625   1.371       .  A
C1624      H1627   1.072       .  S
N1628      C1632   1.378       .  A
N1628      C1629   1.375       .  A
N1628      C1650   1.440       .  S
C1629      C1630   1.385       .  A
C1629      C1658   1.501       .  S
C1630      C1631   1.329       .  A
C1630      H1633   1.078       .  S
C1631      C1632   1.370       .  A
C1631      H1634   1.075       .  S
O1635      C1650   1.272       .  A
O1635     Al1643   1.942       .  S
C1636      O2294   1.269       .  A
C1636      O1637   1.267       .  A
O1637     Al1639   1.911       .  S
O1638      C1640   1.276       .  A
O1638     Al1639   2.015       .  S
Al1639     O1647   1.992       .  S
Al1639     O1649   1.936       .  S
Al1639     O1648   1.775       .  S
C1640      O1653   1.269       .  A
O1641      C1651   1.258       .  A
O1641     Al2291   1.884       .  S
O1642      C1655   1.266       .  A
O1642     Al1652   1.931       .  S
Al1643     O2289   1.884       .  S
Al1643     O2304   1.989   1_545  S
Al1643     O1653   1.916       .  S
Al1643     O1648   1.741       .  S
O1644      C1651   1.261       .  A
O1644     Al1652   1.972       .  S
O1645      C1654   1.272       .  A
O1645     Al1652   1.911       .  S
O1646      C2284   1.269       .  A
O1646     Al1652   1.954       .  S
O1647      C2302   1.277   1_545  A
O1648     Al2300   1.755   1_545  S
O1649      C1650   1.271       .  A
Al1652     O2296   1.755       .  S
C1654      O2295   1.277       .  A
C1655      C1884   1.504       .  S
C1655      O1656   1.270       .  A
O1656     Al2291   1.989       .  S
O1657      C1672   1.275       .  A
O1657     Al2313   1.923       .  S
C1658      O1668   1.263       .  A
C1658      O2307   1.280   1_545  A
O1659      C2306   1.280       .  A
O1659     Al1661   2.019       .  S
O1660      C1662   1.268       .  A
O1660     Al1661   1.908       .  S
Al1661     O1669   1.919       .  S
Al1661     O1671   2.024       .  S
Al1661     O2318   1.774       .  S
C1662      O1675   1.275       .  A
O1663      C1673   1.274       .  A
O1663     Al1665   2.016       .  S
O1664      C1677   1.266       .  A
O1664     Al1674   2.006       .  S
Al1665     O2305   1.923   1_545  S
Al1665     O1678   1.879       .  S
Al1665     O2323   1.955       .  S
Al1665     O1670   1.734   1_545  S
O1666      C1673   1.255       .  A
O1666     Al1674   1.875       .  S
O1667      C2324   1.270       .  A
O1667     Al1674   1.867   1_565  S
O1668     Al1674   1.903       .  S
O1669      C1676   1.263       .  A
O1670     Al2309   1.774       .  S
O1670     Al1674   1.737   1_565  S
O1671      C1672   1.277       .  A
C1672      C1683   1.528       .  S
C1673      C1874   1.499       .  S
O1675     Al2313   1.955       .  S
C1676      N1686   1.408       .  S
C1676      O2315   1.270       .  A
C1677      O1678   1.258       .  A
N1679      C1680   1.375       .  A
N1679      C1726   1.445       .  S
C1680      C1681   1.366       .  A
C1680      C1903   1.498       .  S
C1681      H1684   1.077       .  S
C1682      C1683   1.384       .  A
C1682      H1685   1.074       .  S
N1686      C1690   1.364       .  A
N1686      C1687   1.373       .  A
C1687      C1688   1.346       .  A
C1687      C1834   1.505       .  S
C1688      C1689   1.352       .  A
C1688      H1691   1.053       .  S
C1689      C1690   1.314       .  A
C1689      H1692   1.057       .  S
C1690      C1727   1.466       .  S
N1693      C1697   1.392       .  A
N1693      C1723   1.461       .  S
C1694      C1695   1.378       .  A
C1695      H1698   1.073       .  S
C1696      C1697   1.368       .  A
C1696      H1699   1.074       .  S
N1700      C1704   1.375       .  A
N1700      C1701   1.376       .  A
C1701      C1702   1.380       .  A
C1701      C1708   1.491       .  S
C1702      C1703   1.329       .  A
C1702      H1705   1.079       .  S
C1703      C1704   1.372       .  A
C1703      H1706   1.075       .  S
O1707      C1722   1.244       .  A
O1707     Al1715   1.876       .  S
C1708      O1718   1.272       .  A
C1708      O1709   1.270       .  A
O1709     Al1711   1.912       .  S
O1710      C1712   1.256       .  A
O1710     Al1711   1.875       .  S
Al1711     O1719   1.958   1_655  S
C1712      C1801   1.494       .  S
O1713      C1723   1.273       .  A
O1713     Al1715   1.971       .  S
O1714      C1727   1.259       .  A
Al1715     O1728   1.868       .  S
Al1715     O1725   2.018       .  S
Al1715     O1720   1.738       .  S
O1716      C1723   1.271       .  A
O1717      C1726   1.280       .  A
O1717     Al1724   1.939       .  S
O1718     Al1724   1.986       .  S
O1719      C1726   1.276   1_455  A
O1721      C1722   1.265       .  A
C1727      O1728   1.278       .  A
N1729      C1733   1.382       .  A
N1729      C1730   1.379       .  A
N1729      C1852   1.445       .  S
C1730      C1731   1.374       .  A
C1731      C1732   1.331       .  A
C1731      H1734   1.081       .  S
C1732      C1733   1.384       .  A
C1732      H1735   1.077       .  S
C1733      C1758   1.506       .  S
N1736      C2388   1.388   1_545  A
N1736      C1737   1.378       .  A
N1736      C1762   1.445       .  S
C1737      C1738   1.368       .  A
C1738      C2387   1.331   1_545  A
C1738      H1741   1.073       .  S
C1739      C2386   1.331       .  A
C1739      C1740   1.381       .  A
C1739      H1742   1.079       .  S
C1740      N2384   1.388       .  A
C1740      C1856   1.514       .  S
O1743      C1758   1.270       .  A
O1743     Al1751   1.913       .  S
C1744      C1910   1.527       .  S
C1744      O1754   1.273       .  A
C1744      O1745   1.278       .  A
O1745     Al1747   2.031       .  S
O1746      C2396   1.270       .  A
O1746     Al1747   1.924       .  S
Al1747     O1755   1.942       .  S
Al1747     O2405   2.010   1_545  S
Al1747     O1756   1.768       .  S
C1748      N2564   1.442       .  S
C1748      O2394   1.270       .  A
C1748      O1761   1.275       .  A
O1749      C1759   1.270       .  A
O1749     Al2399   2.006   1_545  S
O1750      C2411   1.268   1_545  A
O1750     Al1760   2.000       .  S
Al1751     O2397   2.006       .  S
Al1751     O1764   1.880       .  S
Al1751     O1761   1.952       .  S
Al1751     O2404   1.750       .  S
O1752      C1759   1.256       .  A
O1752     Al1760   1.878       .  S
O1753      C1762   1.271       .  A
O1753     Al1760   1.949       .  S
O1754     Al1760   1.925       .  S
O1755      C1762   1.274       .  A
O1756     Al2399   1.750   1_545  S
O1756     Al1760   1.745       .  S
O1757      C1758   1.278       .  A
O1757     Al2395   2.010       .  S
C1763      O2398   1.268       .  A
C1763      O1764   1.259       .  A
N1765      C1769   1.379       .  A
N1765      C2414   1.374   1_545  A
N1765      C1845   1.441       .  S
C1766      N2413   1.374       .  A
C1766      C1767   1.386       .  A
C1766      C1888   1.500       .  S
C1767      C2416   1.329       .  A
C1767      H1770   1.079       .  S
C1768      C2415   1.329   1_545  A
C1768      C1769   1.370       .  A
C1768      H1771   1.076       .  S
N1772      C1776   1.376       .  A
N1772      C1773   1.380       .  A
N1772      C1892   1.441       .  S
C1773      C1774   1.382       .  A
C1773      C1830   1.497       .  S
C1774      C1775   1.327       .  A
C1774      H1777   1.077       .  S
C1775      C1776   1.371       .  A
C1775      H1778   1.072       .  S
N1779      C1783   1.381       .  A
N1779      C1780   1.385       .  A
N1779      C1866   1.441   1_554  S
C1780      C1781   1.380       .  A
C1780      C1808   1.515       .  S
C1781      C1782   1.335       .  A
C1781      H1784   1.071       .  S
C1782      C1783   1.373       .  A
C1782      H1785   1.079       .  S
N1786      C1790   1.377       .  A
N1786      C1787   1.381       .  A
N1786      C1812   1.441       .  S
C1787      C1788   1.380       .  A
C1787      C1870   1.508       .  S
C1788      C1789   1.331       .  A
C1788      H1791   1.073       .  S
C1789      C1790   1.368       .  A
C1789      H1792   1.076       .  S
N1793      C1797   1.387       .  A
N1793      C2442   1.377   1_545  A
N1793      C2496   1.440       .  S
C1794      N2441   1.377       .  A
C1794      C1795   1.365       .  A
C1795      C2444   1.332       .  A
C1795      H1798   1.074       .  S
C1796      C2443   1.332   1_545  A
C1796      C1797   1.380       .  A
C1796      H1799   1.075   1_554  S
C1797      C1822   1.516       .  S
N1800      C1804   1.386       .  A
N1800      C1801   1.376       .  A
N1800      C1826   1.444       .  S
C1801      C1802   1.370       .  A
C1802      C1803   1.324       .  A
C1802      H1805   1.075       .  S
C1803      C1804   1.384       .  A
C1803      H1806   1.077       .  S
C1804      C1849   1.509       .  S
O1807      C1822   1.273       .  A
C1808      O1818   1.272       .  A
O1809     Al1811   2.013       .  S
O1810      C1812   1.274       .  A
O1810     Al1811   1.939   1_556  S
Al1811     O1819   1.936       .  S
Al1811     O1821   2.014       .  S
C1812      O1825   1.271       .  A
O1813      C1823   1.271       .  A
O1813     Al1815   2.014       .  S
O1814      C1827   1.268       .  A
O1814     Al1824   2.001       .  S
Al1815     O1828   1.870       .  S
Al1815     O1820   1.745       .  S
O1816      C1823   1.255       .  A
O1816     Al1824   1.870       .  S
O1817     Al1824   1.952       .  S
O1818     Al1824   1.910       .  S
O1819      C1826   1.274       .  A
O1820     Al1824   1.741       .  S
O1821      C1822   1.276       .  A
C1827      O1828   1.254       .  A
O1829      C1844   1.259       .  A
O1829     Al1837   1.886       .  S
C1830      O1840   1.277       .  A
C1830      O1831   1.272       .  A
O1831     Al1833   1.911       .  S
O1832      C1834   1.266       .  A
O1832     Al1833   1.929       .  S
Al1833     O1841   1.951       .  S
Al1833     O2491   1.970       .  S
Al1833     O2490   1.756       .  S
C1834      O2495   1.271       .  A
O1835      C1845   1.273       .  A
O1835     Al1837   1.944       .  S
O1836      C1849   1.276       .  A
O1836     Al1846   2.015       .  S
Al1837     O1850   1.916       .  S
Al1837     O1847   1.992       .  S
Al1837     O1842   1.741       .  S
O1838      C1845   1.271       .  A
O1838     Al1846   1.938       .  S
O1839      C1848   1.267       .  A
O1839     Al2494   1.912       .  S
O1840     Al2494   1.992       .  S
O1841      C1848   1.268       .  A
O1842     Al2481   1.756   1_545  S
O1842     Al1846   1.776       .  S
O1843      C1844   1.260       .  A
O1843     Al2481   1.970   1_545  S
Al1846     O2487   1.912       .  S
Al1846     O2488   1.992   1_545  S
O1847      C2482   1.271   1_545  A
C1848      N2441   1.440       .  S
C1849      O1850   1.269       .  A
O1851      C1866   1.271       .  A
O1851     Al1859   1.941       .  S
C1852      O1853   1.274       .  A
O1853     Al1855   1.941       .  S
O1854      C1856   1.276       .  A
O1854     Al1855   2.010       .  S
Al1855     O1863   2.012       .  S
Al1855     O1865   1.945       .  S
Al1855     O1864   1.768       .  S
C1856      O1869   1.274       .  A
O1857      C1867   1.250       .  A
O1858      C1871   1.256       .  A
O1858     Al1868   1.873       .  S
Al1859     O1869   1.917       .  S
Al1859     O1864   1.746       .  S
O1860      C1867   1.269       .  A
O1860     Al1868   2.002       .  S
O1861      C1870   1.270       .  A
O1861     Al1868   1.912       .  S
O1862     Al1868   1.950   1_455  S
O1865      C1866   1.273       .  A
C1871      O1872   1.271       .  A
N1873      C1877   1.396       .  A
N1873      C1874   1.375       .  A
N1873      C1942   1.446       .  S
C1874      C1875   1.366       .  A
C1875      C1876   1.334       .  A
C1875      H1878   1.077       .  S
C1876      C1877   1.384       .  A
C1876      H1879   1.074       .  S
C1877      C1902   1.528       .  S
N1880      C1884   1.374       .  A
N1880      C1881   1.363       .  A
N1880      C1906   1.409       .  S
C1881      C1882   1.315       .  A
C1881      C1943   1.465       .  S
C1882      C1883   1.351       .  A
C1882      H1885   1.058       .  S
C1883      C1884   1.347       .  A
C1883      H1886   1.054       .  S
O1887      C1902   1.276       .  A
O1887     Al1895   1.923       .  S
C1888      O1898   1.262       .  A
C1888      O1889   1.281       .  A
O1889     Al1891   2.021       .  S
O1890      C1892   1.268       .  A
O1890     Al1891   1.907       .  S
Al1891     O1899   1.921       .  S
Al1891     O1901   2.024       .  S
Al1891     O1900   1.774       .  S
C1892      O1905   1.275       .  A
O1893      C1903   1.274       .  A
O1893     Al1895   2.015       .  S
O1894      C1907   1.266       .  A
O1894     Al1904   2.005       .  S
Al1895     O1908   1.878       .  S
Al1895     O1905   1.957       .  S
Al1895     O1900   1.735       .  S
O1896      C1903   1.254       .  A
O1896     Al1904   1.874       .  S
O1897      C1906   1.270       .  A
O1897     Al1904   1.867       .  S
O1898     Al1904   1.901       .  S
O1899      C1906   1.264       .  A
O1900     Al1904   1.737       .  S
O1901      C1902   1.277       .  A
C1907      O1908   1.259       .  A
N1909      C1913   1.392       .  A
N1909      C1910   1.396       .  A
N1909      C1939   1.461       .  S
C1910      C1911   1.379       .  A
C1911      C1912   1.321       .  A
C1911      H1914   1.072       .  S
C1912      C1913   1.367       .  A
C1912      H1915   1.076       .  S
N1916      C1920   1.377       .  A
N1916      C2565   1.376   1_545  A
N1916      C2396   1.442       .  S
C1917      N2564   1.376       .  A
C1917      C1918   1.372       .  A
C1918      C2567   1.329       .  A
C1918      H1921   1.075       .  S
C1919      C2566   1.329   1_545  A
C1919      C1920   1.380       .  A
C1919      H1922   1.078       .  S
C1920      C1924   1.493       .  S
O1923      C1938   1.244       .  A
O1923     Al1931   1.877       .  S
C1924      O1934   1.273       .  A
C1924      O1925   1.269       .  A
O1925     Al1927   1.913       .  S
O1926      C1928   1.257       .  A
O1926     Al1927   1.876       .  S
Al1927     O1935   1.957       .  S
Al1927     O1937   2.012       .  S
Al1927     O1936   1.746       .  S
C1928      O1941   1.274       .  A
O1929      C1939   1.273       .  A
O1929     Al1931   1.968       .  S
O1930      C1943   1.259       .  A
O1930     Al1940   1.900       .  S
Al1931     O1944   1.866       .  S
Al1931     O1941   2.019       .  S
Al1931     O1936   1.739       .  S
O1932      C1939   1.271       .  A
O1932     Al1940   1.951       .  S
O1933      C1942   1.281       .  A
O1933     Al1940   1.943       .  S
O1934     Al1940   1.989       .  S
O1935      C1942   1.276       .  A
O1936     Al1940   1.764       .  S
O1937      C1938   1.265       .  A
C1943      O1944   1.278       .  A
N1945      C1949   1.370       .  A
N1945      C1946   1.386       .  A
N1945      C2072   1.441       .  S
C1946      C1947   1.385       .  A
C1946      C1979   1.512       .  S
C1947      C1948   1.337       .  A
C1947      H1950   1.079       .  S
C1948      C1949   1.368       .  A
C1948      H1951   1.082       .  S
C1949      C2586   1.491       .  S
N1952      C1956   1.382       .  A
N1952      C1953   1.388       .  A
N1952      C1978   1.453       .  S
C1953      C1954   1.381       .  A
C1953      C2068   1.513       .  S
C1954      C1955   1.326       .  A
C1954      H1957   1.076       .  S
C1955      C1956   1.371       .  A
C1955      H1958   1.075       .  S
C1956      C2555   1.498       .  S
O1959      C1974   1.252       .  A
O1959     Al1967   1.862       .  S
C1960      C2119   1.512       .  S
C1960      O1970   1.274       .  A
C1960      O1961   1.271       .  A
O1962      C1964   1.254       .  A
O1962     Al1963   1.875       .  S
Al1963     O1973   2.013       .  S
C1964      C2565   1.491       .  S
C1964      O1977   1.269       .  A
O1965     Al1967   1.941       .  S
O1966     Al1976   2.006       .  S
Al1967     O1980   1.919       .  S
Al1967     O1977   2.007       .  S
O1968      C1975   1.277       .  A
O1968     Al1976   1.944       .  S
O1969      C1978   1.279       .  A
O1969     Al1976   1.962       .  S
O1970     Al1976   2.011       .  S
O1971      C1978   1.275       .  A
O1972     Al1976   1.763       .  S
O1973      C1974   1.271       .  A
C1974      C2273   1.491       .  S
C1975      N2111   1.443       .  S
C1979      O1980   1.273       .  A
N1981      C1985   1.374       .  A
N1981      C1982   1.386       .  A
N1981      C2036   1.442       .  S
C1982      C1983   1.380       .  A
C1982      C1996   1.515       .  S
C1983      C1984   1.331       .  A
C1983      H1986   1.072   1_554  S
C1984      C1985   1.366       .  A
C1984      H1987   1.074       .  S
C1985      C2475   1.492       .  S
N1988      C1992   1.382       .  A
N1988      C1989   1.389       .  A
N1988      C2000   1.460       .  S
C1989      C1990   1.381       .  A
C1989      C2037   1.511       .  S
C1990      C1991   1.330       .  A
C1990      H1993   1.074       .  S
C1991      C1992   1.370       .  A
C1991      H1994   1.080       .  S
C1992      C2492   1.493       .  S
O1995     Al2003   1.899   1_545  S
C1996      O2006   1.274       .  A
C1996      O1997   1.278       .  A
O1997     Al1999   2.014       .  S
O1998      C2000   1.271       .  A
O1998     Al1999   1.970       .  S
Al1999     O2007   1.901   1_554  S
Al1999     O2009   2.033       .  S
Al1999     O2008   1.779       .  S
C2000      O2013   1.266       .  A
O2001      C2011   1.258       .  A
O2001     Al2003   1.999       .  S
O2002      C2015   1.270       .  A
Al2003     O2016   1.891       .  S
O2004      C2011   1.262   1_545  A
O2005      C2014   1.271       .  A
O2005     Al2012   1.936   1_556  S
O2006     Al2012   1.912       .  S
O2007      C2014   1.269       .  A
O2008     Al2012   1.735       .  S
O2009      C2010   1.280       .  A
C2011      C2345   1.504       .  S
C2014      N2082   1.429       .  S
C2015      C2431   1.503       .  S
C2015      O2016   1.257       .  A
O2017      C2032   1.253       .  A
O2017     Al2025   1.874       .  S
C2018      C2050   1.511       .  S
C2018      O2028   1.275       .  A
C2018      O2019   1.273       .  A
O2019     Al2021   1.919       .  S
O2020      C2022   1.253       .  A
O2020     Al2021   1.862       .  S
Al2021     O2029   1.940       .  S
Al2021     O2031   2.007       .  S
Al2021     O2030   1.749       .  S
C2022      C2424   1.492       .  S
C2022      O2035   1.272       .  A
O2023      C2033   1.275       .  A
O2023     Al2025   1.954       .  S
O2024      C2037   1.274       .  A
O2024     Al2034   2.009       .  S
Al2025     O2038   1.912       .  S
Al2025     O2035   2.013       .  S
Al2025     O2030   1.742       .  S
O2026      C2033   1.279       .  A
O2026     Al2034   1.962       .  S
O2027      C2036   1.277       .  A
O2027     Al2034   1.943       .  S
O2028     Al2034   2.004       .  S
O2029      C2036   1.269       .  A
O2030     Al2034   1.763       .  S
O2031      C2032   1.269       .  A
C2032      C2352   1.491       .  S
C2033      N2039   1.453       .  S
C2037      O2038   1.271       .  A
N2039      C2043   1.388       .  A
N2039      C2040   1.382       .  A
C2040      C2041   1.371       .  A
C2040      C2325   1.498       .  S
C2041      C2042   1.326       .  A
C2041      H2044   1.076       .  S
C2042      C2043   1.381       .  A
C2042      H2045   1.077       .  S
C2043      C2054   1.512       .  S
N2046      C2050   1.386       .  A
N2046      C2047   1.370       .  A
N2046      C2058   1.441       .  S
C2047      C2048   1.367       .  A
C2047      C2370   1.490       .  S
C2048      C2049   1.336       .  A
C2048      H2051   1.082       .  S
C2049      C2050   1.384       .  A
C2049      H2052   1.078       .  S
O2053      C2068   1.270       .  A
O2053     Al2061   1.914       .  S
C2054      O2064   1.270       .  A
C2054      O2055   1.274       .  A
O2055     Al2057   2.012       .  S
O2056      C2058   1.275       .  A
O2056     Al2057   1.934       .  S
Al2057     O2065   1.934       .  S
Al2057     O2067   2.013       .  S
O2059      C2069   1.266       .  A
O2059     Al2061   1.991       .  S
O2060      C2073   1.267       .  A
O2060     Al2070   1.993       .  S
Al2061     O2074   1.886       .  S
Al2061     O2071   1.945   1_655  S
Al2061     O2066   1.743   1_655  S
O2062      C2069   1.260       .  A
O2062     Al2070   1.886       .  S
O2063      C2072   1.270       .  A
O2065      C2072   1.275       .  A
O2066     Al2070   1.743   1_455  S
C2069      C2417   1.492       .  S
C2073      C2280   1.492       .  S
C2073      O2074   1.259       .  A
N2075      C2079   1.379       .  A
N2075      C2076   1.368       .  A
N2075      C2105   1.429   1_554  S
C2076      C2077   1.387       .  A
C2077      C2078   1.334       .  A
C2077      H2080   1.074       .  S
C2078      C2079   1.370       .  A
C2078      H2081   1.077       .  S
C2079      C2253   1.497       .  S
N2082      C2086   1.371       .  A
N2082      C2083   1.374       .  A
C2083      C2084   1.380       .  A
C2083      C2090   1.499       .  S
C2084      C2085   1.330       .  A
C2084      H2087   1.070       .  S
C2085      C2086   1.366       .  A
C2085      H2088   1.073       .  S
C2086      C2212   1.487       .  S
O2089      C2104   1.256       .  A
O2089     Al2097   1.872       .  S
C2090      O2091   1.266       .  A
O2091     Al2093   1.904       .  S
O2092      C2094   1.257       .  A
O2092     Al2093   1.876       .  S
Al2093     O2101   1.931       .  S
Al2093     O2103   1.997       .  S
Al2093     O2102   1.743       .  S
C2094      C2438   1.493       .  S
C2094      O2107   1.268       .  A
O2095     Al2097   1.928       .  S
O2096      C2109   1.277       .  A
O2096     Al2106   2.007       .  S
Al2097     O2107   1.999       .  S
Al2097     O2102   1.744       .  S
O2098      C2105   1.269       .  A
O2098     Al2106   1.919       .  S
O2099      C2108   1.269       .  A
O2099     Al2106   1.917       .  S
O2100     Al2106   2.007       .  S
O2103      C2104   1.268       .  A
C2104      C2172   1.492       .  S
C2108      N2125   1.430       .  S
C2109      C2136   1.501       .  S
C2109      O2110   1.267       .  A
N2111      C2115   1.374       .  A
N2111      C2112   1.387       .  A
C2112      C2113   1.380       .  A
C2112      C2140   1.514       .  S
C2113      C2114   1.330       .  A
C2113      H2116   1.073       .  S
C2114      C2115   1.366       .  A
C2114      H2117   1.073       .  S
C2115      C2195   1.492       .  S
N2118      C2122   1.381       .  A
N2118      C2119   1.389       .  A
N2118      C2144   1.459       .  S
C2119      C2120   1.381       .  A
C2120      C2121   1.330       .  A
C2120      H2123   1.074       .  S
C2121      C2122   1.371       .  A
C2121      H2124   1.080       .  S
C2122      C2299   1.494       .  S
N2125      C2129   1.370       .  A
N2125      C2126   1.379       .  A
C2126      C2127   1.369       .  A
C2126      C2411   1.496       .  S
C2127      C2128   1.332       .  A
C2127      H2130   1.077       .  S
C2128      C2129   1.387       .  A
C2128      H2131   1.074       .  S
C2129      C2154   1.506       .  S
N2132      C2136   1.375       .  A
N2132      C2133   1.371       .  A
N2132      C2158   1.429       .  S
C2133      C2134   1.366       .  A
C2133      C2515   1.488       .  S
C2134      C2135   1.330       .  A
C2134      H2137   1.074       .  S
C2135      C2136   1.380       .  A
C2135      H2138   1.070       .  S
O2139      C2154   1.255       .  A
O2139     Al2147   1.900       .  S
C2140      O2150   1.274       .  A
C2140      O2141   1.277       .  A
O2141     Al2143   2.014       .  S
O2142      C2144   1.271       .  A
O2142     Al2143   1.969       .  S
Al2143     O2151   1.900       .  S
Al2143     O2153   2.033       .  S
Al2143     O2152   1.779       .  S
C2144      O2157   1.266       .  A
O2145      C2155   1.258       .  A
O2145     Al2147   2.000       .  S
O2146      C2159   1.270       .  A
O2146     Al2156   2.012       .  S
Al2147     O2160   1.894       .  S
Al2147     O2157   1.978       .  S
Al2147     O2152   1.696       .  S
O2148      C2155   1.263       .  A
O2148     Al2156   1.894       .  S
O2149      C2158   1.272       .  A
O2149     Al2156   1.938       .  S
O2150     Al2156   1.912       .  S
O2151      C2158   1.269       .  A
O2152     Al2156   1.734       .  S
O2153      C2154   1.280       .  A
C2155      C2561   1.504       .  S
C2159      C2165   1.505       .  S
C2159      O2160   1.258       .  A
N2161      C2165   1.381       .  A
N2161      C2162   1.386       .  A
N2161      C2213   1.441       .  S
C2162      C2163   1.381       .  A
C2162      C2176   1.517       .  S
C2163      C2164   1.336       .  A
C2163      H2166   1.072       .  S
C2164      C2165   1.373       .  A
C2164      H2167   1.079       .  S
N2168      C2172   1.376   1_455  A
N2168      C2180   1.441       .  S
C2169      C2170   1.380       .  A
C2169      C2198   1.509       .  S
C2170      H2173   1.073       .  S
C2171      C2172   1.368       .  A
C2171      H2174   1.075       .  S
O2175      C2190   1.272       .  A
O2175     Al2183   1.921       .  S
C2176      O2186   1.271       .  A
C2176      O2177   1.277       .  A
O2178      C2180   1.274   1_655  A
O2178     Al2179   1.939       .  S
Al2179     O2187   1.940   1_655  S
Al2179     O2189   2.017       .  S
Al2179     O2188   1.762       .  S
C2180      O2193   1.271       .  A
O2181     Al2183   2.014   1_455  S
O2182      C2195   1.268       .  A
Al2183     O2196   1.874       .  S
Al2183     O2193   1.942   1_655  S
Al2183     O2188   1.744       .  S
O2184      C2191   1.255       .  A
O2184     Al2192   1.872       .  S
O2185      C2194   1.272       .  A
O2185     Al2192   1.950       .  S
O2186     Al2192   1.911       .  S
O2189      C2190   1.276       .  A
C2190      C2259   1.516       .  S
C2191      C2378   1.496       .  S
C2195      O2196   1.254       .  A
O2197      C2212   1.250       .  A
O2197     Al2205   1.869       .  S
C2198      O2208   1.277       .  A
C2198      O2199   1.270       .  A
O2199     Al2201   1.911       .  S
O2200      C2202   1.257       .  A
O2200     Al2201   1.877       .  S
Al2201     O2209   1.950       .  S
Al2201     O2211   2.000       .  S
Al2201     O2210   1.746       .  S
C2202      C2385   1.501       .  S
C2202      O2215   1.271       .  A
O2203      C2213   1.272       .  A
O2203     Al2205   1.940       .  S
O2204      C2217   1.276       .  A
O2204     Al2214   2.012       .  S
Al2205     O2218   1.915       .  S
Al2205     O2215   2.016       .  S
Al2205     O2210   1.745       .  S
O2206      C2213   1.274       .  A
O2206     Al2214   1.946       .  S
O2207      C2216   1.274       .  A
O2207     Al2214   1.940       .  S
O2208     Al2214   2.013       .  S
O2209      C2216   1.274       .  A
O2210     Al2214   1.767       .  S
O2211      C2212   1.268       .  A
C2216      N2219   1.445   1_556  S
C2217      C2230   1.513       .  S
C2217      O2218   1.272       .  A
N2219      C2223   1.383       .  A
N2219      C2220   1.378       .  A
C2220      C2221   1.373       .  A
C2220      C2471   1.497       .  S
C2221      C2222   1.331       .  A
C2221      H2224   1.081       .  S
C2222      C2223   1.384       .  A
C2222      H2225   1.077       .  S
C2223      C2248   1.507       .  S
N2226      C2230   1.386       .  A
N2226      C2227   1.377       .  A
N2226      C2252   1.443       .  S
C2227      C2228   1.368       .  A
C2227      C2519   1.499       .  S
C2228      C2229   1.331       .  A
C2228      H2231   1.073       .  S
C2229      C2230   1.381       .  A
C2229      H2232   1.079       .  S
O2233      C2248   1.270       .  A
O2233     Al2241   1.913       .  S
C2234      C2342   1.524       .  S
C2234      O2244   1.273       .  A
C2234      O2235   1.277       .  A
O2235     Al2237   2.026       .  S
O2236      C2238   1.270       .  A
O2236     Al2237   1.921       .  S
Al2237     O2245   1.935       .  S
Al2237     O2247   2.009       .  S
Al2237     O2246   1.769       .  S
C2238      N2348   1.442       .  S
C2238      O2251   1.275       .  A
O2239      C2249   1.270       .  A
O2239     Al2241   2.008       .  S
O2240      C2253   1.269       .  A
O2240     Al2250   2.002       .  S
Al2241     O2254   1.879       .  S
Al2241     O2251   1.952       .  S
Al2241     O2246   1.750       .  S
O2242      C2249   1.256       .  A
O2242     Al2250   1.877       .  S
O2243      C2252   1.271       .  A
O2243     Al2250   1.949   1_556  S
O2244     Al2250   1.926       .  S
O2245      C2252   1.273   1_554  A
O2246     Al2250   1.745       .  S
O2247      C2248   1.278       .  A
C2249      C2442   1.500       .  S
C2253      O2254   1.259       .  A
N2255      C2259   1.386       .  A
N2255      C2256   1.377       .  A
N2255      C2284   1.440       .  S
C2256      C2257   1.365       .  A
C2256      C2407   1.499       .  S
C2257      C2258   1.333       .  A
C2257      H2260   1.074       .  S
C2258      C2259   1.381       .  A
C2258      H2261   1.076       .  S
N2262      C2266   1.386       .  A
C2263      C2264   1.370       .  A
C2263      C2576   1.495       .  S
C2264      H2267   1.074       .  S
C2265      C2266   1.383       .  A
C2265      H2268   1.077       .  S
C2266      C2288   1.510       .  S
N2269      C2273   1.375       .  A
N2269      C2270   1.381       .  A
N2269      C2310   1.440       .  S
C2270      C2271   1.382       .  A
C2270      C2302   1.496       .  S
C2271      C2272   1.326       .  A
C2271      H2274   1.077       .  S
C2272      C2273   1.371       .  A
C2272      H2275   1.072       .  S
N2276      C2280   1.378       .  A
N2276      C2277   1.375       .  A
N2276      C2298   1.440       .  S
C2277      C2278   1.385       .  A
C2277      C2306   1.501       .  S
C2278      C2279   1.329       .  A
C2278      H2281   1.078       .  S
C2279      C2280   1.370       .  A
C2279      H2282   1.075       .  S
O2283      C2298   1.272       .  A
O2283     Al2291   1.942       .  S
C2284      O2285   1.267       .  A
O2285     Al2287   1.911       .  S
O2286      C2288   1.276       .  A
O2286     Al2287   2.015       .  S
Al2287     O2295   1.992       .  S
Al2287     O2297   1.936       .  S
Al2287     O2296   1.775       .  S
C2288      O2301   1.269       .  A
O2289      C2299   1.258   1_545  A
O2290      C2303   1.266       .  A
O2290     Al2300   1.931       .  S
Al2291     O2301   1.916       .  S
Al2291     O2296   1.741       .  S
O2292      C2299   1.261       .  A
O2292     Al2300   1.972       .  S
O2293      C2302   1.272       .  A
O2293     Al2300   1.911       .  S
O2294     Al2300   1.954   1_545  S
O2297      C2298   1.271       .  A
C2303      C2532   1.504       .  S
C2303      O2304   1.270       .  A
O2305      C2320   1.275       .  A
C2306      O2316   1.263       .  A
O2307     Al2309   2.019       .  S
O2308      C2310   1.268       .  A
O2308     Al2309   1.908       .  S
Al2309     O2317   1.919       .  S
Al2309     O2319   2.024       .  S
C2310      O2323   1.275   1_565  A
O2311      C2321   1.274       .  A
O2311     Al2313   2.016       .  S
O2312      C2325   1.266       .  A
O2312     Al2322   2.006       .  S
Al2313     O2326   1.879       .  S
Al2313     O2318   1.734       .  S
O2314      C2321   1.255       .  A
O2314     Al2322   1.875       .  S
O2315     Al2322   1.867       .  S
O2316     Al2322   1.903       .  S
O2317      C2324   1.263       .  A
O2318     Al2322   1.737       .  S
O2319      C2320   1.277       .  A
C2320      C2331   1.528       .  S
C2321      C2522   1.499       .  S
C2324      N2334   1.408       .  S
C2325      O2326   1.258       .  A
N2327      C2328   1.375       .  A
N2327      C2374   1.445       .  S
C2328      C2329   1.366       .  A
C2328      C2551   1.498       .  S
C2329      H2332   1.077       .  S
C2330      C2331   1.384       .  A
C2330      H2333   1.074       .  S
N2334      C2338   1.364       .  A
N2334      C2335   1.373       .  A
C2335      C2336   1.346       .  A
C2335      C2482   1.505       .  S
C2336      C2337   1.352       .  A
C2336      H2339   1.053       .  S
C2337      C2338   1.314       .  A
C2337      H2340   1.057       .  S
C2338      C2375   1.466       .  S
N2341      C2345   1.392       .  A
N2341      C2371   1.461       .  S
C2342      C2343   1.378       .  A
C2343      H2346   1.073       .  S
C2344      C2345   1.368       .  A
C2344      H2347   1.074       .  S
N2348      C2352   1.375       .  A
N2348      C2349   1.376       .  A
C2349      C2350   1.380       .  A
C2349      C2356   1.491       .  S
C2350      C2351   1.329       .  A
C2350      H2353   1.079       .  S
C2351      C2352   1.372       .  A
C2351      H2354   1.075       .  S
O2355      C2370   1.244       .  A
O2355     Al2363   1.876       .  S
C2356      O2366   1.272       .  A
C2356      O2357   1.270       .  A
O2357     Al2359   1.912       .  S
O2358      C2360   1.256       .  A
O2358     Al2359   1.875       .  S
Al2359     O2367   1.958   1_655  S
C2360      C2449   1.494       .  S
O2361      C2371   1.273       .  A
O2361     Al2363   1.971       .  S
O2362      C2375   1.259       .  A
Al2363     O2376   1.868       .  S
Al2363     O2373   2.018       .  S
Al2363     O2368   1.738       .  S
O2364      C2371   1.271       .  A
O2365      C2374   1.280       .  A
O2365     Al2372   1.939       .  S
O2366     Al2372   1.986       .  S
O2367      C2374   1.276   1_455  A
O2369      C2370   1.265       .  A
C2375      O2376   1.278       .  A
N2377      C2381   1.382       .  A
N2377      C2378   1.379       .  A
N2377      C2500   1.445       .  S
C2378      C2379   1.374       .  A
C2379      C2380   1.331       .  A
C2379      H2382   1.081       .  S
C2380      C2381   1.384       .  A
C2380      H2383   1.077       .  S
C2381      C2406   1.506       .  S
N2384      C2385   1.378       .  A
N2384      C2410   1.445       .  S
C2385      C2386   1.368       .  A
C2386      H2389   1.073       .  S
C2387      C2388   1.381       .  A
C2387      H2390   1.079       .  S
C2388      C2504   1.514       .  S
O2391      C2406   1.270       .  A
O2391     Al2399   1.913       .  S
C2392      C2558   1.527       .  S
C2392      O2402   1.273       .  A
C2392      O2393   1.278       .  A
O2393     Al2395   2.031       .  S
O2394     Al2395   1.924       .  S
Al2395     O2403   1.942       .  S
Al2395     O2404   1.768       .  S
C2396      O2409   1.275       .  A
O2397      C2407   1.270       .  A
O2398     Al2408   2.000       .  S
Al2399     O2412   1.880       .  S
Al2399     O2409   1.952   1_565  S
O2400      C2407   1.256       .  A
O2400     Al2408   1.878       .  S
O2401      C2410   1.271       .  A
O2401     Al2408   1.949       .  S
O2402     Al2408   1.925       .  S
O2403      C2410   1.274       .  A
O2404     Al2408   1.745       .  S
O2405      C2406   1.278       .  A
C2411      O2412   1.259       .  A
N2413      C2417   1.379       .  A
N2413      C2493   1.441       .  S
C2414      C2415   1.386       .  A
C2414      C2536   1.500       .  S
C2415      H2418   1.079       .  S
C2416      C2417   1.370       .  A
C2416      H2419   1.076       .  S
N2420      C2424   1.376       .  A
N2420      C2421   1.380       .  A
N2420      C2540   1.441       .  S
C2421      C2422   1.382       .  A
C2421      C2478   1.497       .  S
C2422      C2423   1.327       .  A
C2422      H2425   1.077       .  S
C2423      C2424   1.371       .  A
C2423      H2426   1.072       .  S
N2427      C2431   1.381       .  A
N2427      C2428   1.385       .  A
N2427      C2514   1.441   1_554  S
C2428      C2429   1.380       .  A
C2428      C2456   1.515       .  S
C2429      C2430   1.335       .  A
C2429      H2432   1.071       .  S
C2430      C2431   1.373       .  A
C2430      H2433   1.079       .  S
N2434      C2438   1.377       .  A
N2434      C2435   1.381       .  A
N2434      C2460   1.441       .  S
C2435      C2436   1.380       .  A
C2435      C2518   1.508       .  S
C2436      C2437   1.331       .  A
C2436      H2439   1.073       .  S
C2437      C2438   1.368       .  A
C2437      H2440   1.076       .  S
N2441      C2445   1.387       .  A
C2442      C2443   1.365       .  A
C2443      H2446   1.074       .  S
C2444      C2445   1.380       .  A
C2444      H2447   1.075   1_554  S
C2445      C2470   1.516       .  S
N2448      C2452   1.386       .  A
N2448      C2449   1.376       .  A
N2448      C2474   1.444       .  S
C2449      C2450   1.370       .  A
C2450      C2451   1.324       .  A
C2450      H2453   1.075       .  S
C2451      C2452   1.384       .  A
C2451      H2454   1.077       .  S
C2452      C2497   1.509       .  S
O2455      C2470   1.273       .  A
C2456      O2466   1.272       .  A
O2457     Al2459   2.013       .  S
O2458      C2460   1.274       .  A
O2458     Al2459   1.939   1_556  S
Al2459     O2467   1.936       .  S
Al2459     O2469   2.014       .  S
C2460      O2473   1.271       .  A
O2461      C2471   1.271       .  A
O2461     Al2463   2.014       .  S
O2462      C2475   1.268       .  A
O2462     Al2472   2.001       .  S
Al2463     O2476   1.870       .  S
Al2463     O2468   1.745       .  S
O2464      C2471   1.255       .  A
O2464     Al2472   1.870       .  S
O2465     Al2472   1.952       .  S
O2466     Al2472   1.910       .  S
O2467      C2474   1.274       .  A
O2468     Al2472   1.741       .  S
O2469      C2470   1.276       .  A
C2475      O2476   1.254       .  A
O2477      C2492   1.259       .  A
O2477     Al2485   1.886       .  S
C2478      O2488   1.277       .  A
C2478      O2479   1.272       .  A
O2479     Al2481   1.911       .  S
O2480      C2482   1.266       .  A
O2480     Al2481   1.929       .  S
Al2481     O2489   1.951   1_565  S
O2483      C2493   1.273       .  A
O2483     Al2485   1.944       .  S
O2484      C2497   1.276       .  A
O2484     Al2494   2.015       .  S
Al2485     O2498   1.916       .  S
Al2485     O2495   1.992       .  S
Al2485     O2490   1.741       .  S
O2486      C2493   1.271       .  A
O2486     Al2494   1.938       .  S
O2487      C2496   1.267       .  A
O2489      C2496   1.268       .  A
O2490     Al2494   1.776       .  S
O2491      C2492   1.260       .  A
C2497      O2498   1.269       .  A
O2499      C2514   1.271       .  A
O2499     Al2507   1.941       .  S
C2500      O2501   1.274       .  A
O2501     Al2503   1.941       .  S
O2502      C2504   1.276       .  A
O2502     Al2503   2.010       .  S
Al2503     O2511   2.012       .  S
Al2503     O2513   1.945       .  S
Al2503     O2512   1.768       .  S
C2504      O2517   1.274       .  A
O2505      C2515   1.250       .  A
O2506      C2519   1.256       .  A
O2506     Al2516   1.873       .  S
Al2507     O2517   1.917       .  S
Al2507     O2512   1.746       .  S
O2508      C2515   1.269       .  A
O2508     Al2516   2.002       .  S
O2509      C2518   1.270       .  A
O2509     Al2516   1.912       .  S
O2510     Al2516   1.950   1_455  S
O2513      C2514   1.273       .  A
C2519      O2520   1.271       .  A
N2521      C2525   1.396       .  A
N2521      C2522   1.375       .  A
N2521      C2590   1.446       .  S
C2522      C2523   1.366       .  A
C2523      C2524   1.334       .  A
C2523      H2526   1.077       .  S
C2524      C2525   1.384       .  A
C2524      H2527   1.074       .  S
C2525      C2550   1.528       .  S
N2528      C2532   1.374       .  A
N2528      C2529   1.363       .  A
N2528      C2554   1.409       .  S
C2529      C2530   1.315       .  A
C2529      C2591   1.465       .  S
C2530      C2531   1.351       .  A
C2530      H2533   1.058       .  S
C2531      C2532   1.347       .  A
C2531      H2534   1.054       .  S
O2535      C2550   1.276       .  A
O2535     Al2543   1.923       .  S
C2536      O2546   1.262       .  A
C2536      O2537   1.281       .  A
O2537     Al2539   2.021       .  S
O2538      C2540   1.268       .  A
O2538     Al2539   1.907       .  S
Al2539     O2547   1.921       .  S
Al2539     O2549   2.024       .  S
Al2539     O2548   1.774       .  S
C2540      O2553   1.275       .  A
O2541      C2551   1.274       .  A
O2541     Al2543   2.015       .  S
O2542      C2555   1.266       .  A
O2542     Al2552   2.005       .  S
Al2543     O2556   1.878       .  S
Al2543     O2553   1.957       .  S
Al2543     O2548   1.735       .  S
O2544      C2551   1.254       .  A
O2544     Al2552   1.874       .  S
O2545      C2554   1.270       .  A
O2545     Al2552   1.867       .  S
O2546     Al2552   1.901       .  S
O2547      C2554   1.264       .  A
O2548     Al2552   1.737       .  S
O2549      C2550   1.277       .  A
C2555      O2556   1.259       .  A
N2557      C2561   1.392       .  A
N2557      C2558   1.396       .  A
N2557      C2587   1.461       .  S
C2558      C2559   1.379       .  A
C2559      C2560   1.321       .  A
C2559      H2562   1.072       .  S
C2560      C2561   1.367       .  A
C2560      H2563   1.076       .  S
N2564      C2568   1.377       .  A
C2565      C2566   1.372       .  A
C2566      H2569   1.075       .  S
C2567      C2568   1.380       .  A
C2567      H2570   1.078       .  S
C2568      C2572   1.493       .  S
O2571      C2586   1.244       .  A
O2571     Al2579   1.877       .  S
C2572      O2582   1.273       .  A
C2572      O2573   1.269       .  A
O2573     Al2575   1.913       .  S
O2574      C2576   1.257       .  A
O2574     Al2575   1.876       .  S
Al2575     O2583   1.957       .  S
Al2575     O2585   2.012       .  S
Al2575     O2584   1.746       .  S
C2576      O2589   1.274       .  A
O2577      C2587   1.273       .  A
O2577     Al2579   1.968       .  S
O2578      C2591   1.259       .  A
O2578     Al2588   1.900       .  S
Al2579     O2592   1.866       .  S
Al2579     O2589   2.019       .  S
Al2579     O2584   1.739       .  S
O2580      C2587   1.271       .  A
O2580     Al2588   1.951       .  S
O2581      C2590   1.281       .  A
O2581     Al2588   1.943       .  S
O2582     Al2588   1.989       .  S
O2583      C2590   1.276       .  A
O2584     Al2588   1.764       .  S
O2585      C2586   1.265       .  A
C2591      O2592   1.278       .  A
