geometry optimzed in LAMMPS
_audit_creation_date              2020-11-30 
_audit_creation_method            'lammps2cif' 
_symmetry_space_group_name_H-M    'P1' 
_symmetry_Int_Tables_number       1 
_symmetry_cell_setting            triclinic 
loop_ 
_symmetry_equiv_pos_as_xyz 
  x,y,z 
_cell_length_a                    53.10758421 
_cell_length_b                    53.17933267497854 
_cell_length_c                    53.03521510610563 
_cell_angle_alpha                 90.07134688635989 
_cell_angle_beta                  90.31145976080701 
_cell_angle_gamma                 90.30763284294407 
loop_ 
_atom_site_label 
_atom_site_type_symbol 
_atom_site_fract_x 
_atom_site_fract_y 
_atom_site_fract_z 
_atom_site_charge 
C1          C  0.53274002  0.65002796  0.28543761     0.86200
C2          C  0.50829440  0.63485435  0.28631951    -0.54000
C3          C  0.50794486  0.61439683  0.27106710     0.09100
C4          C  0.53185340  0.61132718  0.25514048     0.20100
C5          C  0.55386374  0.63053447  0.29047395    -0.54700
C6          C  0.55353826  0.61049666  0.27431967     0.09200
C7          C  0.53668282  0.65670970  0.25734730    -0.54300
C8          C  0.53628010  0.63634713  0.24143170     0.09800
H9          H  0.49271007  0.63956772  0.29862475     0.14300
H10         H  0.53120444  0.59487539  0.24223868     0.00100
H11         H  0.56816858  0.63258303  0.30494143     0.14600
H12         H  0.54092230  0.67555046  0.25083049     0.14400
C13         C  0.39024953  0.51706306  0.28252680     0.86200
C14         C  0.40719000  0.49399687  0.28172896    -0.54000
C15         C  0.42626304  0.49496668  0.26460759     0.09100
C16         C  0.42596108  0.51951649  0.24876641     0.20100
C17         C  0.40862175  0.53948642  0.28609580    -0.54700
C18         C  0.42724652  0.54090722  0.26838059     0.09200
C19         C  0.38064399  0.52081585  0.25539707    -0.54300
C20         C  0.39911419  0.52210882  0.23762234     0.09800
H21         H  0.40494363  0.47860063  0.29498690     0.14300
H22         H  0.44087816  0.52044403  0.23427467     0.00100
H23         H  0.40675115  0.55351489  0.30085209     0.14600
H24         H  0.36111929  0.52436926  0.25075113     0.14400
C25         C  0.52189204  0.37552581  0.28374080     0.86200
C26         C  0.54629372  0.39062856  0.28184953    -0.54000
C27         C  0.54576675  0.40950716  0.26470833     0.09100
C28         C  0.52065374  0.41156221  0.25012325     0.20100
C29         C  0.50123146  0.39560281  0.28831165    -0.54700
C30         C  0.50041910  0.41428905  0.27051963     0.09200
C31         C  0.51595513  0.36647045  0.25652916    -0.54300
C32         C  0.51511039  0.38535080  0.23884587     0.09800
H33         H  0.56231520  0.38761944  0.29431315     0.14300
H34         H  0.52038470  0.42695708  0.23599364     0.00100
H35         H  0.48799171  0.39486195  0.30376947     0.14600
H36         H  0.51160660  0.34707179  0.25189458     0.14400
C37         C  0.66379312  0.50658398  0.27650452     0.86200
C38         C  0.64757794  0.53033229  0.27762389    -0.54000
C39         C  0.62635021  0.52998810  0.26294240     0.09100
C40         C  0.62383007  0.50572527  0.24720797     0.20100
C41         C  0.64519459  0.48488246  0.28209027    -0.54700
C42         C  0.62446038  0.48444349  0.26679555     0.09200
C43         C  0.66945695  0.50260442  0.24811738    -0.54300
C44         C  0.64861544  0.50284033  0.23255158     0.09800
H45         H  0.65192045  0.54559069  0.29060454     0.14300
H46         H  0.60715832  0.50538280  0.23466079     0.00100
H47         H  0.64840411  0.47074984  0.29650059     0.14600
H48         H  0.68746396  0.49652412  0.24108126     0.14400
C49         C  0.30983590  0.51297182  0.62955809     0.86200
C50         C  0.31081809  0.48837045  0.61431562    -0.54000
C51         C  0.29527076  0.48750349  0.59371993     0.09100
C52         C  0.27916204  0.51150558  0.59056400     0.20100
C53         C  0.31410108  0.53408906  0.61015978    -0.54700
C54         C  0.29834072  0.53323766  0.58967377     0.09200
C55         C  0.28154251  0.51583921  0.63620500    -0.54300
C56         C  0.26557266  0.51543705  0.61584637     0.09800
H57         H  0.32298780  0.47284856  0.61950092     0.14300
H58         H  0.26604166  0.51103512  0.57419825     0.00100
H59         H  0.32793581  0.54897481  0.61283534     0.14600
H60         H  0.27432038  0.52001066  0.65478693     0.14400
C61         C  0.30673810  0.36475582  0.50075058     0.86200
C62         C  0.30721342  0.38131943  0.47736356    -0.54000
C63         C  0.29052906  0.40063659  0.47734315     0.09100
C64         C  0.27324583  0.40073786  0.50096821     0.20100
C65         C  0.30925823  0.38352632  0.52324205    -0.54700
C66         C  0.29156228  0.40241033  0.52347236     0.09200
C67         C  0.27953680  0.35532691  0.50314629    -0.54300
C68         C  0.26190012  0.37387981  0.50354984     0.09800
H69         H  0.32108714  0.37885550  0.46257192     0.14300
H70         H  0.25920165  0.41605838  0.50074780     0.00100
H71         H  0.32335842  0.38181520  0.53799990     0.14600
H72         H  0.27475749  0.33582145  0.50683957     0.14400
C73         C  0.31672941  0.50442837  0.36572067     0.86200
C74         C  0.31612671  0.52850404  0.38165807    -0.54000
C75         C  0.30035515  0.52760363  0.40168205     0.09100
C76         C  0.28488748  0.50311406  0.40324176     0.20100
C77         C  0.32121840  0.48267466  0.38457020    -0.54700
C78         C  0.30436188  0.48180452  0.40418768     0.09200
C79         C  0.28885748  0.50090205  0.35759088    -0.54300
C80         C  0.27235247  0.49979217  0.37722071     0.09800
H81         H  0.32750931  0.54502705  0.37767057     0.14300
H82         H  0.27135500  0.50301105  0.41913218     0.00100
H83         H  0.33516329  0.46824408  0.38128309     0.14600
H84         H  0.28225470  0.49873749  0.33837914     0.14400
C85         C  0.31567176  0.64979842  0.49408358     0.86200
C86         C  0.31368830  0.63330401  0.51780514    -0.54000
C87         C  0.29677829  0.61394401  0.51614317     0.09100
C88         C  0.28283597  0.61301669  0.49063143     0.20100
C89         C  0.32061764  0.63110648  0.47224918    -0.54700
C90         C  0.30339985  0.61192498  0.47061703     0.09200
C91         C  0.28807952  0.65844472  0.48983471    -0.54300
C92         C  0.27098721  0.63912590  0.48729466     0.09800
H93         H  0.32583960  0.63600561  0.53408597     0.14300
H94         H  0.26920920  0.59719846  0.48888208     0.00100
H95         H  0.33642314  0.63279779  0.45945288     0.14600
H96         H  0.28220154  0.67788745  0.48975104     0.14400
C97         C  0.67169166  0.29498205  0.50334009     0.86200
C98         C  0.65856642  0.29387611  0.47763557    -0.54000
C99         C  0.63804347  0.27860928  0.47672066     0.09100
C100        C  0.63268413  0.26467255  0.50153192     0.20100
C101        C  0.65039953  0.30148994  0.52221280    -0.54700
C102        C  0.63018208  0.28540235  0.52132409     0.09200
C103        C  0.67764598  0.26736127  0.51037379    -0.54300
C104        C  0.65724719  0.25133731  0.50919372     0.09800
H105        H  0.66351997  0.30631445  0.46216651     0.14300
H106        H  0.61598349  0.25203359  0.50069857     0.00100
H107        H  0.65167110  0.31656686  0.53597609     0.14600
H108        H  0.69564417  0.26143276  0.51801201     0.14400
C109        C  0.53457753  0.30048525  0.36639681     0.86200
C110        C  0.51125152  0.29901534  0.38330451    -0.54000
C111        C  0.51303368  0.28295476  0.40345118     0.09100
C112        C  0.53842535  0.26889224  0.40409241     0.20100
C113        C  0.55658755  0.30624248  0.38448111    -0.54700
C114        C  0.55857923  0.28969314  0.40401217     0.09200
C115        C  0.53863304  0.27264280  0.35845505    -0.54300
C116        C  0.54115142  0.25627578  0.37821834     0.09800
H117        H  0.49472226  0.31040803  0.37969301     0.14300
H118        H  0.54069212  0.25510629  0.41950547     0.00100
H119        H  0.56999457  0.32143929  0.38152469     0.14600
H120        H  0.53952885  0.26600635  0.33916181     0.14400
C121        C  0.38798981  0.28867355  0.49247456     0.86200
C122        C  0.40197210  0.28605824  0.51775051    -0.54000
C123        C  0.42232312  0.27055741  0.51726626     0.09100
C124        C  0.42587161  0.25733588  0.49157891     0.20100
C125        C  0.40846745  0.29541647  0.47316945    -0.54700
C126        C  0.42812171  0.27895850  0.47247623     0.09200
C127        C  0.38053902  0.26122822  0.48588353    -0.54300
C128        C  0.40036234  0.24479186  0.48499813     0.09800
H129        H  0.39727032  0.29700468  0.53432477     0.14300
H130        H  0.44201138  0.24416711  0.49135248     0.00100
H131        H  0.40748083  0.31194704  0.46119919     0.14600
H132        H  0.36144637  0.25495696  0.48206172     0.14400
C133        C  0.52600812  0.29246854  0.63071316     0.86200
C134        C  0.54766968  0.29623735  0.61209703    -0.54000
C135        C  0.54763172  0.28008740  0.59219515     0.09100
C136        C  0.52483441  0.26195059  0.59185379     0.20100
C137        C  0.50233541  0.29524109  0.61357933    -0.54700
C138        C  0.50172888  0.27925872  0.59316706     0.09200
C139        C  0.52620676  0.26441402  0.63771213    -0.54300
C140        C  0.52502359  0.24844241  0.61749587     0.09800
H141        H  0.56152727  0.31121884  0.61374313     0.14300
H142        H  0.52463660  0.24880809  0.57555698     0.00100
H143        H  0.48719973  0.30836173  0.61739428     0.14600
H144        H  0.52507327  0.25782631  0.65702254     0.14400
C145        C  0.53514720  0.72769577  0.64477410     0.86200
C146        C  0.51137617  0.72871277  0.62808106    -0.54000
C147        C  0.51239920  0.74554186  0.60892120     0.09100
C148        C  0.53748859  0.76010836  0.60765000     0.20100
C149        C  0.55623376  0.72232671  0.62537008    -0.54700
C150        C  0.55764031  0.73964363  0.60628632     0.09200
C151        C  0.53974540  0.75506590  0.65327267    -0.54300
C152        C  0.54169880  0.77205837  0.63388425     0.09800
H153        H  0.49558617  0.71577951  0.62972914     0.14300
H154        H  0.53848634  0.77360922  0.59171820     0.00100
H155        H  0.56838297  0.70602651  0.62606634     0.14600
H156        H  0.54156489  0.76030118  0.67295543     0.14400
C157        C  0.39520533  0.72900991  0.50945247     0.86200
C158        C  0.41288361  0.72760670  0.48684778    -0.54000
C159        C  0.43354231  0.74307520  0.48780299     0.09100
C160        C  0.43442763  0.75919049  0.51208407     0.20100
C161        C  0.41266540  0.72435538  0.53256721    -0.54700
C162        C  0.43310237  0.74018358  0.53390160     0.09200
C163        C  0.38864321  0.75726758  0.51222860    -0.54300
C164        C  0.40915602  0.77317207  0.51326674     0.09800
H165        H  0.40945315  0.71444830  0.47151205     0.14300
H166        H  0.45068268  0.77223367  0.51320651     0.00100
H167        H  0.40900782  0.71020865  0.54683702     0.14600
H168        H  0.36971815  0.76397173  0.51552250     0.14400
C169        C  0.52426435  0.72955531  0.36347329     0.86200
C170        C  0.54947991  0.73315700  0.37733852    -0.54000
C171        C  0.54880614  0.74890720  0.39758274     0.09100
C172        C  0.52304295  0.76201211  0.40058353     0.20100
C173        C  0.50496981  0.72313597  0.38428141    -0.54700
C174        C  0.50395850  0.74038532  0.40347941     0.09200
C175        C  0.51730282  0.75649321  0.35520819    -0.54300
C176        C  0.51628852  0.77338200  0.37459418     0.09800
H177        H  0.56615289  0.72232817  0.37288419     0.14300
H178        H  0.52247102  0.77590952  0.41620905     0.00100
H179        H  0.49322540  0.70638629  0.38370995     0.14600
H180        H  0.51329869  0.76224505  0.33603337     0.14400
C181        C  0.66354224  0.72441533  0.49866827     0.86200
C182        C  0.64739505  0.72352276  0.52253350    -0.54000
C183        C  0.62724762  0.73923264  0.52245805     0.09100
C184        C  0.62531681  0.75541874  0.49858390     0.20100
C185        C  0.64454761  0.72021551  0.47664489    -0.54700
C186        C  0.62459986  0.73659981  0.47653942     0.09200
C187        C  0.67082463  0.75243177  0.49513176    -0.54300
C188        C  0.65087575  0.76865511  0.49570807     0.09800
H189        H  0.65123694  0.71074881  0.53804824     0.14300
H190        H  0.60923127  0.76868149  0.49882757     0.00100
H191        H  0.64756486  0.70665628  0.46167865     0.14600
H192        H  0.68923528  0.75879078  0.48914197     0.14400
C193        C  0.66456745  0.51194386  0.71379517     0.86200
C194        C  0.64847495  0.48782848  0.71336977    -0.54000
C195        C  0.62747832  0.48846493  0.72797525     0.09100
C196        C  0.62496763  0.51309892  0.74303505     0.20100
C197        C  0.64617123  0.53365101  0.70804762    -0.54700
C198        C  0.62572936  0.53428645  0.72358117     0.09200
C199        C  0.67078575  0.51541300  0.74229037    -0.54300
C200        C  0.64989391  0.51609539  0.75752677     0.09800
H201        H  0.65313830  0.47154086  0.70194984     0.14300
H202        H  0.60797190  0.51393794  0.75509492     0.00100
H203        H  0.64942214  0.54761877  0.69349573     0.14600
H204        H  0.68959402  0.51782171  0.74998170     0.14400
C205        C  0.52392317  0.64563189  0.71979097     0.86200
C206        C  0.54658913  0.62792735  0.71740600    -0.54000
C207        C  0.54623700  0.60778248  0.73295190     0.09100
C208        C  0.52285471  0.60698134  0.75026289     0.20100
C209        C  0.50118740  0.62752593  0.71540714    -0.54700
C210        C  0.50009292  0.60754300  0.73201034     0.09200
C211        C  0.52242241  0.65261589  0.74784917    -0.54300
C212        C  0.52147209  0.63253864  0.76394190     0.09800
H213        H  0.56118521  0.62998365  0.70328977     0.14300
H214        H  0.52323931  0.59116392  0.76382118     0.00100
H215        H  0.48789654  0.62986911  0.70004687     0.14600
H216        H  0.51968230  0.67185497  0.75410464     0.14400
C217        C  0.38699008  0.50473051  0.71180749     0.86200
C218        C  0.40428689  0.52799478  0.71385073    -0.54000
C219        C  0.42480536  0.52568794  0.72964418     0.09100
C220        C  0.42564187  0.49951852  0.74217854     0.20100
C221        C  0.40490115  0.48323080  0.70445425    -0.54700
C222        C  0.42508596  0.48066723  0.72014807     0.09200
C223        C  0.38012477  0.49796625  0.73934151    -0.54300
C224        C  0.40032532  0.49537747  0.75543623     0.09800
H225        H  0.40084159  0.54449009  0.70238365     0.14300
H226        H  0.44114935  0.49718980  0.75542786     0.00100
H227        H  0.40188957  0.47098449  0.68828913     0.14600
H228        H  0.36144199  0.49278019  0.74537706     0.14400
C229        C  0.52842097  0.37082860  0.70992367     0.86200
C230        C  0.55173040  0.38837822  0.70711810    -0.54000
C231        C  0.55131283  0.40941749  0.72213807     0.09100
C232        C  0.52782828  0.41075918  0.73888259     0.20100
C233        C  0.52777879  0.36494409  0.73833749    -0.54700
C234        C  0.52798011  0.38580388  0.75352622     0.09200
C235        C  0.50625659  0.38860063  0.70495661    -0.54300
C236        C  0.50555979  0.40902013  0.72028795     0.09800
H237        H  0.56733477  0.38453248  0.69459858     0.14300
H238        H  0.52707117  0.42761723  0.75123753     0.00100
H239        H  0.52976345  0.34602668  0.74573437     0.14600
H240        H  0.49242935  0.38576723  0.69005258     0.14400
C241        C  0.74013978  0.64269634  0.50807059     0.86200
C242        C  0.73968885  0.62723474  0.48359090    -0.54000
C243        C  0.75533904  0.60699574  0.48331879     0.09100
C244        C  0.77156452  0.60478017  0.50743691     0.20100
C245        C  0.73603319  0.62329405  0.52945859    -0.54700
C246        C  0.75270609  0.60362156  0.52918342     0.09200
C247        C  0.76829283  0.65024081  0.51113141    -0.54300
C248        C  0.78453868  0.63034636  0.51126868     0.09800
H249        H  0.72715499  0.63150111  0.46792901     0.14300
H250        H  0.78503106  0.58887832  0.50715728     0.00100
H251        H  0.72218765  0.62573387  0.54421756     0.14600
H252        H  0.77530595  0.66903218  0.51414801     0.14400
C253        C  0.74050175  0.51592472  0.35931862     0.86200
C254        C  0.73939233  0.49188198  0.37550669    -0.54000
C255        C  0.75475536  0.49229022  0.39616599     0.09100
C256        C  0.77059242  0.51628713  0.39863458     0.20100
C257        C  0.73577984  0.53773392  0.37804865    -0.54700
C258        C  0.75155775  0.53776722  0.39859107     0.09200
C259        C  0.76899178  0.51890978  0.35297093    -0.54300
C260        C  0.78462651  0.51915052  0.37368001     0.09800
H261        H  0.72733112  0.47591279  0.37105326     0.14300
H262        H  0.78325124  0.51625746  0.41539113     0.00100
H263        H  0.72110591  0.55162917  0.37541932     0.14600
H264        H  0.77651070  0.52203271  0.33434490     0.14400
C265        C  0.75113494  0.37416674  0.49354003     0.86200
C266        C  0.75177771  0.39105080  0.51694884    -0.54000
C267        C  0.76765163  0.41128024  0.51567917     0.09100
C268        C  0.78306114  0.41189782  0.49106960     0.20100
C269        C  0.74655723  0.39221070  0.47120414    -0.54700
C270        C  0.76344433  0.41177868  0.46958486     0.09200
C271        C  0.77891984  0.36621085  0.49051315    -0.54300
C272        C  0.79553991  0.38590084  0.48919460     0.09800
H273        H  0.73982564  0.38754587  0.53312734     0.14300
H274        H  0.79669350  0.42768429  0.49015636     0.00100
H275        H  0.73126117  0.38959524  0.45776534     0.14600
H276        H  0.78546802  0.34699754  0.48893659     0.14400
C277        C  0.74775988  0.50168180  0.63921718     0.86200
C278        C  0.74955963  0.52666567  0.62531262    -0.54000
C279        C  0.76619307  0.52717202  0.60595969     0.09100
C280        C  0.78085461  0.50233795  0.60275751     0.20100
C281        C  0.74300882  0.48176370  0.61804847    -0.54700
C282        C  0.76054295  0.48213740  0.59908672     0.09200
C283        C  0.77486726  0.49572903  0.64780169    -0.54300
C284        C  0.79225342  0.49544994  0.62874228     0.09800
H285        H  0.73676743  0.54212229  0.62898508     0.14300
H286        H  0.79471474  0.50278498  0.58716912     0.00100
H287        H  0.72781411  0.46807090  0.61839119     0.14600
H288        H  0.77957623  0.49068132  0.66698827     0.14400
C289        C  0.79781141  0.99895089  0.86358923     0.86200
C290        C  0.79852594  0.02481990  0.87610444    -0.54000
C291        C  0.78416889  0.02693358  0.89698880     0.09100
C292        C  0.76956507  0.00280061  0.90383758     0.20100
C293        C  0.80432752  0.98017065  0.88494649    -0.54700
C294        C  0.78946475  0.98216091  0.90589479     0.09200
C295        C  0.76940000  0.99304932  0.85904755    -0.54300
C296        C  0.75441938  0.99512534  0.88021156     0.09800
H297        H  0.81082505  0.03994576  0.86981449     0.14300
H298        H  0.75819316  0.00436748  0.92119262     0.00100
H299        H  0.81783679  0.96509100  0.88274288     0.14600
H300        H  0.76223788  0.98481265  0.84176333     0.14400
C301        C  0.80480805  0.14781205  0.98897554     0.86200
C302        C  0.80239748  0.13432542  0.01440694    -0.54000
C303        C  0.78648736  0.11418349  0.01437839     0.09100
C304        C  0.77289488  0.11001504  0.98887600     0.20100
C305        C  0.81081985  0.12692320  0.96961720    -0.54700
C306        C  0.79391020  0.10740512  0.96942641     0.09200
C307        C  0.77727117  0.15518724  0.98261970    -0.54300
C308        C  0.76076571  0.13524317  0.98178890     0.09800
H309        H  0.81372543  0.13923282  0.03081981     0.14300
H310        H  0.75964391  0.09377541  0.98874783     0.00100
H311        H  0.82619055  0.12825168  0.95624825     0.14600
H312        H  0.77109910  0.17406109  0.97835187     0.14400
C313        C  0.80805908  0.01430574  0.12943891     0.86200
C314        C  0.80848470  0.99111839  0.11203463    -0.54000
C315        C  0.79203918  0.99204482  0.09232106     0.09100
C316        C  0.77544469  0.01568210  0.09224328     0.20100
C317        C  0.81135017  0.03698168  0.11157520    -0.54700
C318        C  0.79443840  0.03757577  0.09195769     0.09200
C319        C  0.78023515  0.01522806  0.13788786    -0.54300
C320        C  0.76326129  0.01672273  0.11851323     0.09800
H321        H  0.82050031  0.97495263  0.11517701     0.14300
H322        H  0.76160512  0.01612853  0.07646867     0.00100
H323        H  0.82556129  0.05143245  0.11454932     0.14600
H324        H  0.77406217  0.01481969  0.15727630     0.14400
C325        C  0.79808017  0.86855631  0.00240732     0.86200
C326        C  0.79546664  0.88359538  0.97789952    -0.54000
C327        C  0.77827339  0.90245226  0.97878037     0.09100
C328        C  0.76394913  0.90392093  0.00383729     0.20100
C329        C  0.80234524  0.88849605  0.02325656    -0.54700
C330        C  0.78444399  0.90696405  0.02410880     0.09200
C331        C  0.77092193  0.85880407  0.00697232    -0.54300
C332        C  0.75312932  0.87736012  0.00822256     0.09800
H333        H  0.80759210  0.88077789  0.96173104     0.14300
H334        H  0.74974535  0.91914684  0.00397586     0.00100
H335        H  0.81836041  0.88809759  0.03605908     0.14600
H336        H  0.76569482  0.83917900  0.00874753     0.14400
C337        C  0.88186244  0.79471855  0.99443302     0.86200
C338        C  0.89745128  0.79626525  0.01869263    -0.54000
C339        C  0.91858811  0.78202748  0.01865219     0.09100
C340        C  0.92196805  0.76634240  0.99443993     0.20100
C341        C  0.90055122  0.80065024  0.97300541    -0.54700
C342        C  0.92139853  0.78575967  0.97293683     0.09200
C343        C  0.87657216  0.76639760  0.99015886    -0.54300
C344        C  0.89740715  0.75085979  0.99068595     0.09800
H345        H  0.89232873  0.80809343  0.03456550     0.14300
H346        H  0.93959217  0.75572241  0.99531459     0.00100
H347        H  0.89688080  0.81415430  0.95811258     0.14600
H348        H  0.85805600  0.75972122  0.98464020     0.14400
C349        C  0.01293528  0.79195042  0.14112752     0.86200
C350        C  0.03683045  0.79150215  0.12519917    -0.54000
C351        C  0.03577810  0.77559133  0.10526061     0.09100
C352        C  0.01135431  0.76004661  0.10343605     0.20100
C353        C  0.99105266  0.79630853  0.12211874    -0.54700
C354        C  0.98996741  0.77933995  0.10253737     0.09200
C355        C  0.00987581  0.76401760  0.14913167    -0.54300
C356        C  0.00855965  0.74735367  0.12937820     0.09800
H357        H  0.05300766  0.80363112  0.12868321     0.14300
H358        H  0.01123311  0.74691657  0.08715386     0.00100
H359        H  0.97753262  0.81139582  0.12419801     0.14600
H360        H  0.00925199  0.75748232  0.16843836     0.14400
C361        C  0.15036207  0.79232035  0.00725653     0.86200
C362        C  0.13570055  0.79155050  0.98235010    -0.54000
C363        C  0.11538595  0.77584564  0.98188135     0.09100
C364        C  0.11123980  0.76211918  0.00719059     0.20100
C365        C  0.13046942  0.79868600  0.02736344    -0.54700
C366        C  0.11002824  0.78308273  0.02724295     0.09200
C367        C  0.15646069  0.76452435  0.01355232    -0.54300
C368        C  0.13601787  0.74831539  0.01330378     0.09800
H369        H  0.14006738  0.80427793  0.96699008     0.14300
H370        H  0.09450151  0.74983978  0.00651580     0.00100
H371        H  0.13298533  0.81333287  0.04146099     0.14600
H372        H  0.17475251  0.75850250  0.02016671     0.14400
C373        C  0.02220735  0.79663883  0.86038035     0.86200
C374        C  0.99706173  0.79710821  0.87467637    -0.54000
C375        C  0.99535484  0.78044575  0.89398315     0.09100
C376        C  0.01917653  0.76455397  0.89784427     0.20100
C377        C  0.04177055  0.80106711  0.88195622    -0.54700
C378        C  0.04041370  0.78393779  0.90138331     0.09200
C379        C  0.02596867  0.76889300  0.85272004    -0.54300
C380        C  0.02465542  0.75208459  0.87231309     0.09800
H381        H  0.98240387  0.81087697  0.87123503     0.14300
H382        H  0.01770157  0.75073776  0.91342497     0.00100
H383        H  0.05521492  0.81642947  0.88231318     0.14600
H384        H  0.03087622  0.76332018  0.83366724     0.14400
C385        C  0.01655111  0.87558509  0.77990107     0.86200
C386        C  0.03984080  0.89315982  0.77949796    -0.54000
C387        C  0.03812774  0.91302829  0.76347914     0.09100
C388        C  0.01296472  0.91403577  0.74901796     0.20100
C389        C  0.99473850  0.89397628  0.78595202    -0.54700
C390        C  0.99269922  0.91384424  0.76948189     0.09200
C391        C  0.01201226  0.86832161  0.75193664    -0.54300
C392        C  0.00938326  0.88843702  0.73583082     0.09800
H393        H  0.05563989  0.89191394  0.79239329     0.14300
H394        H  0.01147133  0.93040152  0.73611963     0.00100
H395        H  0.98210251  0.89148172  0.80177080     0.14600
H396        H  0.01017300  0.84895486  0.74573170     0.14400
C397        C  0.15474533  0.01134080  0.78332359     0.86200
C398        C  0.14072488  0.03648784  0.78118466    -0.54000
C399        C  0.12084211  0.03629213  0.76478581     0.09100
C400        C  0.11744790  0.01108635  0.75070375     0.20100
C401        C  0.13395168  0.99144067  0.78864323    -0.54700
C402        C  0.11447605  0.99138137  0.77155495     0.09200
C403        C  0.16262802  0.00571541  0.75579533    -0.54300
C404        C  0.14310378  0.00496638  0.73890942     0.09800
H405        H  0.14471526  0.05241822  0.79343394     0.14300
H406        H  0.10162779  0.01102747  0.73689977     0.00100
H407        H  0.13523275  0.97784401  0.80384300     0.14600
H408        H  0.18151519  0.00186392  0.74956909     0.14400
C409        C  0.01920107  0.14763330  0.78882540     0.86200
C410        C  0.99579190  0.13096867  0.79269457    -0.54000
C411        C  0.99492877  0.11015770  0.77772246     0.09100
C412        C  0.01799309  0.10739565  0.76039689     0.20100
C413        C  0.04134999  0.12913774  0.79334361    -0.54700
C414        C  0.04067679  0.10825254  0.77831644     0.09200
C415        C  0.02012273  0.15311494  0.76032158    -0.54300
C416        C  0.01995992  0.13204847  0.74543481     0.09800
H417        H  0.98111932  0.13509261  0.80617782     0.14300
H418        H  0.01748414  0.09040295  0.74818052     0.00100
H419        H  0.05641330  0.13210806  0.80692117     0.14600
H420        H  0.02284167  0.17189900  0.75275277     0.14400
C421        C  0.87705684  0.01088076  0.78447216     0.86200
C422        C  0.89564850  0.98886089  0.78426400    -0.54000
C423        C  0.91564556  0.99156500  0.76833453     0.09100
C424        C  0.91448657  0.01600563  0.75274613     0.20100
C425        C  0.89368427  0.03449801  0.78900773    -0.54700
C426        C  0.91313852  0.03739064  0.77225054     0.09200
C427        C  0.86889973  0.01305025  0.75642529    -0.54300
C428        C  0.88842871  0.01611065  0.73999006     0.09800
H429        H  0.89341381  0.97258904  0.79640823     0.14300
H430        H  0.93008072  0.01791724  0.73909972     0.00100
H431        H  0.89030769  0.04771896  0.80421293     0.14600
H432        H  0.84970857  0.01261482  0.74955780     0.14400
C433        C  0.22652472  0.87466896  0.99574289     0.86200
C434        C  0.22550859  0.89092094  0.01973587    -0.54000
C435        C  0.24071159  0.91158190  0.01937912     0.09100
C436        C  0.25659077  0.91396292  0.99542632     0.20100
C437        C  0.22173984  0.89308630  0.97372733    -0.54700
C438        C  0.23751491  0.91351443  0.97369402     0.09200
C439        C  0.25499520  0.86834966  0.99301542    -0.54300
C440        C  0.27075707  0.88898278  0.99288647     0.09800
H441        H  0.21362949  0.88645548  0.03575460     0.14300
H442        H  0.26901561  0.93083915  0.99540706     0.00100
H443        H  0.20760264  0.88994208  0.95918428     0.14600
H444        H  0.26227835  0.84971513  0.98980192     0.14400
C445        C  0.23472471  0.01695855  0.86328197     0.86200
C446        C  0.23247862  0.99301141  0.87906349    -0.54000
C447        C  0.24773925  0.99231621  0.89963515     0.09100
C448        C  0.26526022  0.01545456  0.90231301     0.20100
C449        C  0.23103490  0.03866280  0.88257276    -0.54700
C450        C  0.24728345  0.03810987  0.90286921     0.09200
C451        C  0.26298469  0.01953967  0.85675909    -0.54300
C452        C  0.27921035  0.01850690  0.87698464     0.09800
H453        H  0.21871148  0.97830743  0.87507428     0.14300
H454        H  0.27814159  0.01405603  0.91876204     0.00100
H455        H  0.21689503  0.05312025  0.88031246     0.14600
H456        H  0.26970216  0.02469060  0.83824460     0.14400
C457        C  0.23528474  0.00413714  0.14131939     0.86200
C458        C  0.23426312  0.02737732  0.12408077    -0.54000
C459        C  0.25026361  0.02659195  0.10405390     0.09100
C460        C  0.26696971  0.00294092  0.10347580     0.20100
C461        C  0.23159445  0.98155489  0.12321944    -0.54700
C462        C  0.24830340  0.98085850  0.10351826     0.09200
C463        C  0.26345539  0.00275659  0.14912542    -0.54300
C464        C  0.27989174  0.00129812  0.12945017     0.09800
H465        H  0.22172284  0.04310692  0.12727573     0.14300
H466        H  0.28014858  0.00266831  0.08729642     0.00100
H467        H  0.21685239  0.96756537  0.12562245     0.14600
H468        H  0.27043406  0.00217317  0.16831717     0.14400
C469        C  0.24105611  0.14753397  0.00937711     0.86200
C470        C  0.23751721  0.12881676  0.03154045    -0.54000
C471        C  0.25416609  0.10909407  0.03181232     0.09100
C472        C  0.27264341  0.10967034  0.00954567     0.20100
C473        C  0.26916360  0.15527218  0.01120317    -0.54700
C474        C  0.28557012  0.13560357  0.01191145     0.09200
C475        C  0.23999531  0.13105442  0.98558248    -0.54300
C476        C  0.25580341  0.11083899  0.98555634     0.09800
H477        H  0.22306552  0.13102944  0.04576929     0.14300
H478        H  0.28625208  0.09394874  0.00957494     0.00100
H479        H  0.27619005  0.17434787  0.01252499     0.14600
H480        H  0.22685798  0.13468310  0.97026800     0.14400
C481        C  0.02246193  0.22800268  0.86541344     0.86200
C482        C  0.04603267  0.22673175  0.88211342    -0.54000
C483        C  0.04613477  0.24278272  0.90193854     0.09100
C484        C  0.02180590  0.25828532  0.90443019     0.20100
C485        C  0.00107593  0.22246648  0.88446767    -0.54700
C486        C  0.00086099  0.23832616  0.90497145     0.09200
C487        C  0.01882619  0.25596690  0.85867616    -0.54300
C488        C  0.01746679  0.27178020  0.87906605     0.09800
H489        H  0.06028209  0.21234312  0.88055456     0.14300
H490        H  0.02164424  0.27127954  0.92081705     0.00100
H491        H  0.98710265  0.20771318  0.88180787     0.14600
H492        H  0.01551217  0.26231744  0.83950308     0.14400
C493        C  0.88198768  0.22933427  0.99818040     0.86200
C494        C  0.89941730  0.22814604  0.97544344    -0.54000
C495        C  0.91914785  0.24445331  0.97639060     0.09100
C496        C  0.91991342  0.26071821  0.00041228     0.20100
C497        C  0.89939372  0.22575061  0.02135118    -0.54700
C498        C  0.91917647  0.24209192  0.02252616     0.09200
C499        C  0.87447346  0.25739319  0.00044001    -0.54300
C500        C  0.89433123  0.27459439  0.00104619     0.09800
H501        H  0.89701293  0.21443910  0.96040790     0.14300
H502        H  0.93701016  0.27196540  0.00112449     0.00100
H503        H  0.89634691  0.21171534  0.03588034     0.14600
H504        H  0.85500949  0.26246862  0.00312463     0.14400
C505        C  0.02201967  0.22388703  0.13501997     0.86200
C506        C  0.99958495  0.22063133  0.11670587    -0.54000
C507        C  0.99960713  0.23683995  0.09682201     0.09100
C508        C  0.02282416  0.25426133  0.09614055     0.20100
C509        C  0.04518239  0.22053496  0.11743469    -0.54700
C510        C  0.04548619  0.23636591  0.09689946     0.09200
C511        C  0.02261376  0.25197502  0.14195599    -0.54300
C512        C  0.02350017  0.26779693  0.12171003     0.09800
H513        H  0.98499522  0.20646242  0.11890221     0.14300
H514        H  0.02299037  0.26756780  0.08002914     0.00100
H515        H  0.05987307  0.20679541  0.12068899     0.14600
H516        H  0.02450618  0.25864522  0.16125054     0.14400
C517        C  0.16352281  0.22908222  0.00005938     0.86200
C518        C  0.14765157  0.22901090  0.02420380    -0.54000
C519        C  0.12709814  0.24427299  0.02371236     0.09100
C520        C  0.12415822  0.25867979  0.99857630     0.20100
C521        C  0.14450273  0.22295990  0.97868203    -0.54700
C522        C  0.12413773  0.23848262  0.97785200     0.09200
C523        C  0.16965445  0.25732770  0.99488166    -0.54300
C524        C  0.14900144  0.27298997  0.99454252     0.09800
H525        H  0.15142378  0.21619598  0.03965542     0.14300
H526        H  0.10730403  0.27091612  0.99798463     0.00100
H527        H  0.14740375  0.20830558  0.96472877     0.14600
H528        H  0.18777601  0.26399507  0.98847611     0.14400
C529        C  0.88781441  0.00423706  0.20796622     0.86200
C530        C  0.90496579  0.02728458  0.20621655    -0.54000
C531        C  0.92363198  0.02811904  0.22370888     0.09100
C532        C  0.92331728  0.00573155  0.24222611     0.20100
C533        C  0.90587146  0.98129615  0.20753023    -0.54700
C534        C  0.92451417  0.98180591  0.22576028     0.09200
C535        C  0.87816219  0.00396976  0.23546433    -0.54300
C536        C  0.89679745  0.00427436  0.25332314     0.09800
H537        H  0.90275813  0.04170397  0.19188091     0.14300
H538        H  0.93771725  0.00742795  0.25730388     0.00100
H539        H  0.90366899  0.96607884  0.19426047     0.14600
H540        H  0.85858438  0.00091369  0.24043764     0.14400
C541        C  0.01963973  0.14799853  0.21688088     0.86200
C542        C  0.04292000  0.13092635  0.21545702    -0.54000
C543        C  0.04197217  0.11023870  0.23052800     0.09100
C544        C  0.01749313  0.10809857  0.24582558     0.20100
C545        C  0.99774721  0.12969599  0.21052051    -0.54700
C546        C  0.99660976  0.10904143  0.22575592     0.09200
C547        C  0.01624870  0.15380848  0.24524683    -0.54300
C548        C  0.01468577  0.13296049  0.26066023     0.09800
H549        H  0.05853266  0.13419165  0.20283912     0.14300
H550        H  0.01701233  0.09094136  0.25764768     0.00100
H551        H  0.98452303  0.13243826  0.19508802     0.14600
H552        H  0.01430081  0.17287290  0.25228065     0.14400
C553        C  0.15952925  0.01190648  0.22414860     0.86200
C554        C  0.14268945  0.98856404  0.22246237    -0.54000
C555        C  0.12239279  0.98876944  0.23787437     0.09100
C556        C  0.12088618  0.01235318  0.25478815     0.20100
C557        C  0.14137629  0.03435835  0.22036466    -0.54700
C558        C  0.12126363  0.03490605  0.23656811     0.09200
C559        C  0.16669418  0.01443974  0.25233455    -0.54300
C560        C  0.14658979  0.01424233  0.26851707     0.09800
H561        H  0.14610918  0.97330488  0.20928811     0.14300
H562        H  0.10429700  0.01204074  0.26736661     0.00100
H563        H  0.14453343  0.04889232  0.20634826     0.14600
H564        H  0.18541023  0.01921313  0.25896361     0.14400
C565        C  0.02633334  0.86971052  0.22143200     0.86200
C566        C  0.00298198  0.88645876  0.22243196    -0.54000
C567        C  0.00424135  0.90656748  0.23869117     0.09100
C568        C  0.02978037  0.90750540  0.25286088     0.20100
C569        C  0.04819436  0.88814587  0.21570202    -0.54700
C570        C  0.04989064  0.90783290  0.23214896     0.09200
C571        C  0.03182592  0.86205421  0.24901368    -0.54300
C572        C  0.03334743  0.88180893  0.26555012     0.09800
H573        H  0.98730843  0.88309585  0.20964052     0.14300
H574        H  0.03198627  0.92264034  0.26677391     0.00100
H575        H  0.06148882  0.88567788  0.20042048     0.14600
H576        H  0.03756635  0.84331318  0.25448868     0.14400
O577        O  0.65825466  0.13207069  0.53780744    -0.58100
C578        C  0.67197810  0.05878041  0.53339791     0.74500
O579        O  0.70591245  0.10463327  0.59850696    -0.59200
C580        C  0.65828645  0.15053685  0.55286319     0.74500
C581        C  0.64324591  0.06465132  0.60034322     0.76900
Cd582      Cd  0.67057684  0.09927233  0.56848211     1.37500
O583        O  0.65251303  0.07221725  0.53562736    -0.58100
O584        O  0.63204297  0.07592469  0.58255057    -0.56900
C585        C  0.72268557  0.10412126  0.58154508     0.76900
O586        O  0.66447414  0.07372113  0.60661149    -0.59300
O587        O  0.69166718  0.06669573  0.54440269    -0.57700
O588        O  0.66111727  0.14504448  0.57595753    -0.57700
O589        O  0.71510565  0.10218715  0.55894292    -0.56900
O590        O  0.88509189  0.03437851  0.61724145    -0.58100
C591        C  0.87088803  0.03378783  0.54446996     0.74500
O592        O  0.84608370  0.10101471  0.59220788    -0.59200
C593        C  0.88746430  0.04909302  0.63585483     0.74500
C594        C  0.90692345  0.09763359  0.55090247     0.76900
Cd595      Cd  0.87677105  0.06737977  0.58542512     1.37500
O596        O  0.89052165  0.03378064  0.55806751    -0.58100
O597        O  0.91674824  0.07954644  0.56297928    -0.56900
C598        C  0.82748266  0.08602225  0.59375653     0.76900
O599        O  0.88547723  0.10430135  0.55859378    -0.59300
O600        O  0.85250718  0.04645548  0.55254322    -0.57700
O601        O  0.88810003  0.07240456  0.63078276    -0.57700
O602        O  0.83198837  0.06271659  0.59228404    -0.56900
O603        O  0.88901451  0.98783849  0.43290542    -0.58100
C604        C  0.88553159  0.97162372  0.35677065     0.74500
O605        O  0.87331474  0.92379187  0.43891732    -0.59200
C606        C  0.86868810  0.99332849  0.44391865     0.74500
C607        C  0.82139823  0.93491522  0.40213245     0.76900
Cd608      Cd  0.87020393  0.95608395  0.40649840     1.37500
O609        O  0.87737822  0.98685783  0.37303392    -0.58100
O610        O  0.82517081  0.95845405  0.40211707    -0.56900
C611        C  0.89606690  0.92789873  0.44473668     0.76900
O612        O  0.84057516  0.92081242  0.40158436    -0.59300
O613        O  0.88788702  0.94891696  0.36375755    -0.57700
O614        O  0.84849600  0.98488174  0.43430837    -0.57700
O615        O  0.90834792  0.94154462  0.42948282    -0.56900
O616        O  0.66392200  0.95210138  0.40952479    -0.58100
C617        C  0.71903906  0.91765891  0.42664809     0.74500
O618        O  0.65258028  0.95054708  0.47926680    -0.59200
C619        C  0.64241494  0.96001517  0.41574386     0.74500
C620        C  0.65627661  0.87245694  0.46136477     0.76900
Cd621      Cd  0.66959911  0.92370698  0.44627448     1.37500
O622        O  0.69983028  0.91533924  0.41251645    -0.58100
O623        O  0.65477530  0.87950043  0.43858923    -0.56900
C624        C  0.67314455  0.96189723  0.48382988     0.76900
O625        O  0.66121422  0.88963541  0.47716048    -0.59300
O626        O  0.71518619  0.92140409  0.44989968    -0.57700
O627        O  0.63167465  0.94811948  0.43340835    -0.57700
O628        O  0.69254653  0.95295286  0.47349602    -0.56900
O629        O  0.58087352  0.97897846  0.85209277    -0.58100
C630        C  0.65234476  0.95423654  0.87724987     0.74500
O631        O  0.57932791  0.90334644  0.87716331    -0.59200
C632        C  0.56379707  0.96908382  0.83836174     0.74500
C633        C  0.61761542  0.91570233  0.81282449     0.76900
Cd634      Cd  0.60306630  0.93864194  0.85892337     1.37500
O635        O  0.63508077  0.96999853  0.87274337    -0.58100
O636        O  0.61744397  0.93927457  0.81606233    -0.56900
C637        C  0.56540330  0.91694645  0.89088064     0.76900
O638        O  0.61194953  0.90205893  0.83158234    -0.59300
O639        O  0.64585107  0.93129075  0.87661909    -0.57700
O640        O  0.56693837  0.94642884  0.83208584    -0.57700
O641        O  0.57263204  0.93946085  0.89390086    -0.56900
O642        O  0.55796980  0.89428832  0.64607191    -0.58100
C643        C  0.55845072  0.96438765  0.67658800     0.74500
O644        O  0.62314271  0.91270295  0.69194551    -0.59200
C645        C  0.57348864  0.87677320  0.64197948     0.74500
C646        C  0.61525232  0.96366702  0.63274801     0.76900
Cd647      Cd  0.59021331  0.92495557  0.66131847     1.37500
O648        O  0.55144166  0.94902868  0.65957830    -0.58100
O649        O  0.59522050  0.95323528  0.62482578    -0.56900
C650        C  0.60737039  0.90772061  0.70919025     0.76900
O651        O  0.62655858  0.95240436  0.65052523    -0.59300
O652        O  0.57814173  0.95906811  0.68887059    -0.57700
O653        O  0.59665374  0.88261740  0.64342305    -0.57700
O654        O  0.58430508  0.91023350  0.70370861    -0.56900
O655        O  0.50906629  0.12922767  0.64311758    -0.58100
C656        C  0.50677679  0.05747583  0.66955812     0.74500
O657        O  0.43610771  0.10234462  0.67058131    -0.59200
C658        C  0.49558510  0.14401454  0.63024474     0.74500
C659        C  0.45571680  0.05744631  0.61560852     0.76900
Cd660      Cd  0.47644614  0.09587019  0.64812765     1.37500
O661        O  0.51583804  0.07216203  0.65307166    -0.58100
O662        O  0.47825626  0.06479129  0.61292820    -0.56900
C663        C  0.44674953  0.10865884  0.69110407     0.76900
O664        O  0.44195733  0.07110115  0.62938880    -0.59300
O665        O  0.48545251  0.06293212  0.67830130    -0.57700
O666        O  0.47397564  0.13581833  0.62389760    -0.57700
O667        O  0.47044581  0.11120106  0.69068521    -0.56900
O668        O  0.39407110  0.06318794  0.86323291    -0.58100
C669        C  0.47280636  0.02532733  0.82795639     0.74500
O670        O  0.42732509  0.09766176  0.81039486    -0.59200
C671        C  0.38458288  0.04275381  0.85504281     0.74500
C672        C  0.47180463  0.08823581  0.86710168     0.76900
Cd673      Cd  0.43416283  0.06072346  0.83806733     1.37500
O674        O  0.45794099  0.02218172  0.84631390    -0.58100
O675        O  0.46658533  0.06541888  0.87153447    -0.56900
C676        C  0.42445964  0.08466768  0.79052889     0.76900
O677        O  0.45638234  0.09955904  0.85283187    -0.59300
O678        O  0.46770844  0.04279462  0.81264583    -0.57700
O679        O  0.39853706  0.03030660  0.84050223    -0.57700
O680        O  0.42511946  0.06103501  0.79311755    -0.56900
O681        O  0.58552355  0.02582042  0.15096573    -0.58100
C682        C  0.66016971  0.04820201  0.13787872     0.74500
O683        O  0.58707673  0.10155134  0.14035425    -0.59200
C684        C  0.57079794  0.03136216  0.16886577     0.74500
C685        C  0.62074316  0.08805781  0.20289785     0.76900
Cd686      Cd  0.61069185  0.06440980  0.15556410     1.37500
O687        O  0.64524699  0.03356483  0.14931521    -0.58100
O688        O  0.62046905  0.06440014  0.20021696    -0.56900
C689        C  0.57400699  0.08969484  0.12417016     0.76900
O690        O  0.61830631  0.10114126  0.18307799    -0.59300
O691        O  0.65151286  0.06982616  0.13300408    -0.57700
O692        O  0.57691016  0.04986454  0.18256601    -0.57700
O693        O  0.58109186  0.06747897  0.11951787    -0.56900
O694        O  0.61782649  0.10701489  0.32505216    -0.58100
C695        C  0.60823461  0.05747238  0.37831524     0.74500
O696        O  0.55315183  0.13462121  0.36298133    -0.59200
C697        C  0.60402860  0.10775359  0.30546686     0.74500
C698        C  0.54200635  0.06460393  0.34725386     0.76900
Cd699      Cd  0.58216151  0.09933306  0.35348958     1.37500
O700        O  0.61214279  0.06360548  0.35564756    -0.58100
O701        O  0.55353691  0.07327519  0.32833143    -0.56900
C702        C  0.56953000  0.15071660  0.36953691     0.76900
O703        O  0.54603494  0.07559733  0.36812263    -0.59300
O704        O  0.59543152  0.07315099  0.39089300    -0.57700
O705        O  0.58044587  0.10624024  0.30863045    -0.57700
O706        O  0.59199299  0.14272387  0.37093096    -0.56900
O707        O  0.40216391  0.98283111  0.13873715    -0.58100
C708        C  0.47555596  0.98101785  0.16450973     0.74500
O709        O  0.43218865  0.91351882  0.17702804    -0.59200
C710        C  0.38385300  0.96774867  0.13589465     0.74500
C711        C  0.46687781  0.92335975  0.11603595     0.76900
Cd712      Cd  0.43416161  0.95024617  0.14907913     1.37500
O713        O  0.46030129  0.98887282  0.14783373    -0.58100
O714        O  0.46268047  0.94653770  0.11266551    -0.56900
C715        C  0.42579495  0.92638418  0.19603589     0.76900
O716        O  0.45173171  0.91207790  0.13050299    -0.59300
O717        O  0.46968723  0.96103228  0.17588373    -0.57700
O718        O  0.38919846  0.94457712  0.13669688    -0.57700
O719        O  0.42230939  0.94967941  0.19269163    -0.56900
O720        O  0.42456977  0.95221244  0.34894902    -0.58100
C721        C  0.44360015  0.91239257  0.29867368     0.74500
O722        O  0.49190676  0.95351040  0.36586313    -0.59200
C723        C  0.42904635  0.96020838  0.37097831     0.74500
C724        C  0.48007434  0.87585765  0.36388516     0.76900
Cd725      Cd  0.46163291  0.92454146  0.34744322     1.37500
O726        O  0.42869868  0.91263805  0.31726804    -0.58100
O727        O  0.45684111  0.88121459  0.36494424    -0.56900
C728        C  0.49597988  0.96590460  0.34597478     0.76900
O729        O  0.49460860  0.89360239  0.35752109    -0.59300
O730        O  0.46659328  0.91731248  0.30302765    -0.57700
O731        O  0.44476842  0.94761933  0.38383811    -0.57700
O732        O  0.48707568  0.95662892  0.32575350    -0.56900
O733        O  0.16552086  0.98501064  0.61878155    -0.58100
C734        C  0.20162534  0.98837798  0.55325985     0.74500
O735        O  0.21142805  0.91686878  0.59738434    -0.59200
C736        C  0.16046222  0.96990027  0.63642282     0.74500
C737        C  0.15640940  0.92867069  0.54807762     0.76900
Cd738      Cd  0.18366738  0.95313361  0.58915209     1.37500
O739        O  0.18554120  0.99448912  0.56972275    -0.58100
O740        O  0.15259106  0.95146283  0.55356558    -0.56900
C741        C  0.23051504  0.93006991  0.60323478     0.76900
O742        O  0.16829176  0.91614795  0.56452320    -0.59300
O743        O  0.21226337  0.96741928  0.55625585    -0.57700
O744        O  0.16393680  0.94686032  0.63141850    -0.57700
O745        O  0.22729052  0.95361850  0.60452786    -0.56900
O746        O  0.40406093  0.94574165  0.59741356    -0.58100
C747        C  0.33303469  0.91402693  0.58582782     0.74500
O748        O  0.37490248  0.94845285  0.52230811    -0.59200
C749        C  0.41756245  0.95981872  0.58361603     0.74500
C750        C  0.39674577  0.87770438  0.54394214     0.76900
Cd751      Cd  0.38047675  0.92623721  0.56252673     1.37500
O752        O  0.35193591  0.91960977  0.59951814    -0.58100
O753        O  0.40368559  0.88579632  0.56539959    -0.56900
C754        C  0.36403915  0.96721392  0.53219996     0.76900
O755        O  0.38387426  0.89277875  0.53076255    -0.59300
O756        O  0.33677769  0.91329370  0.56236429    -0.57700
O757        O  0.41766956  0.95446379  0.56033567    -0.57700
O758        O  0.35979997  0.96615170  0.55558837    -0.56900
O759        O  0.33399702  0.09833859  0.39963477    -0.58100
C760        C  0.39577503  0.05726433  0.40720594     0.74500
O761        O  0.36873977  0.12628825  0.46522166    -0.59200
C762        C  0.31584467  0.10215861  0.41453932     0.74500
C763        C  0.35559522  0.05592397  0.47240339     0.76900
Cd764      Cd  0.36499509  0.09256190  0.43454887     1.37500
O765        O  0.38034410  0.07134153  0.39567723    -0.58100
O766        O  0.34132470  0.05821906  0.45336907    -0.56900
C767        C  0.38065008  0.14188816  0.45195096     0.76900
O768        O  0.37336720  0.07174964  0.47473386    -0.59300
O769        O  0.39966435  0.06239010  0.43018634    -0.57700
O770        O  0.32096464  0.10208531  0.43781744    -0.57700
O771        O  0.38746896  0.13410593  0.43039779    -0.56900
O772        O  0.19277142  0.10501990  0.41152967    -0.58100
C773        C  0.13075382  0.09155065  0.45645519     0.74500
O774        O  0.15450689  0.03474658  0.39056818    -0.59200
C775        C  0.21154007  0.09134394  0.40621106     0.74500
C776        C  0.18794349  0.04083611  0.46119316     0.76900
Cd777      Cd  0.16556672  0.06848856  0.42132946     1.37500
O778        O  0.14563093  0.10461529  0.44310485    -0.58100
O779        O  0.19447192  0.06309317  0.45607522    -0.56900
C780        C  0.15099109  0.04965658  0.37227755     0.76900
O781        O  0.17265676  0.03000550  0.44617268    -0.59300
O782        O  0.12900023  0.06855118  0.45047654    -0.57700
O783        O  0.20813390  0.06779606  0.40643556    -0.57700
O784        O  0.15017789  0.07285037  0.37769546    -0.56900
O785        O  0.14251048  0.35420432  0.52708076    -0.58100
C786        C  0.07542905  0.33218120  0.52296387     0.74500
O787        O  0.12454722  0.31926871  0.59670029    -0.59200
C788        C  0.16015681  0.36179230  0.54125738     0.74500
C789        C  0.07322514  0.37442395  0.58711484     0.76900
Cd790      Cd  0.11150229  0.34591404  0.56032942     1.37500
O791        O  0.08913833  0.35154751  0.52023444    -0.58100
O792        O  0.08642452  0.38500946  0.57028449    -0.56900
C793        C  0.12519844  0.29940665  0.58342923     0.76900
O794        O  0.08055683  0.35289849  0.59386276    -0.59300
O795        O  0.08043891  0.31803396  0.54139338    -0.57700
O796        O  0.15480927  0.36440332  0.56442314    -0.57700
O797        O  0.12060945  0.30183382  0.56015773    -0.56900
O798        O  0.03410019  0.16241565  0.56927505    -0.58100
C799        C  0.05393019  0.14111125  0.64161635     0.74500
O800        O  0.10767655  0.13954643  0.56840614    -0.59200
C801        C  0.04146808  0.18099113  0.55627019     0.74500
C802        C  0.10433485  0.20055295  0.60699655     0.76900
Cd803      Cd  0.07328886  0.15874798  0.59327599     1.37500
O804        O  0.04106026  0.15387998  0.62618989    -0.58100
O805        O  0.08080339  0.20058788  0.61059761    -0.56900
C806        C  0.09342363  0.12830189  0.55276201     0.76900
O807        O  0.11391173  0.18023824  0.59916484    -0.59300
O808        O  0.07529678  0.13417406  0.63368672    -0.57700
O809        O  0.06199949  0.19127285  0.56286799    -0.57700
O810        O  0.07044102  0.12678949  0.55881088    -0.56900
O811        O  0.00909146  0.17173604  0.44182411    -0.58100
C812        C  0.99045783  0.14824095  0.36775242     0.74500
O813        O  0.93514791  0.14653025  0.44039876    -0.59200
C814        C  0.99789309  0.18499452  0.45822618     0.74500
C815        C  0.94428578  0.20948806  0.40150223     0.76900
Cd816      Cd  0.97050435  0.16542388  0.41648303     1.37500
O817        O  0.00252419  0.16270746  0.38248242    -0.58100
O818        O  0.96803233  0.20853554  0.40275620    -0.56900
C819        C  0.94867213  0.13337555  0.45511753     0.76900
O820        O  0.93220832  0.18918352  0.40514976    -0.59300
O821        O  0.97013635  0.13924516  0.37666484    -0.57700
O822        O  0.97575610  0.19192359  0.45308578    -0.57700
O823        O  0.97152381  0.13114773  0.44872322    -0.56900
O824        O  0.96767382  0.37691359  0.39854593    -0.58100
C825        C  0.93006133  0.31187900  0.41391546     0.74500
O826        O  0.96951040  0.35262323  0.47467040    -0.59200
C827        C  0.98167451  0.39116374  0.41184414     0.74500
C828        C  0.89790716  0.37653701  0.45369806     0.76900
Cd829      Cd  0.94558082  0.35867238  0.43522936     1.37500
O830        O  0.93563253  0.33014363  0.39961034    -0.58100
O831        O  0.90384269  0.37853519  0.43065260    -0.56900
C832        C  0.98611185  0.33901711  0.46432072     0.76900
O833        O  0.91520574  0.36972426  0.46867034    -0.59300
O834        O  0.93011366  0.31632283  0.43734819    -0.57700
O835        O  0.97505558  0.39408427  0.43453297    -0.57700
O836        O  0.98242247  0.33286296  0.44161487    -0.56900
O837        O  0.14834420  0.54024051  0.64388471    -0.58100
C838        C  0.07477270  0.53367593  0.65563210     0.74500
O839        O  0.11767706  0.60700092  0.67366693    -0.59200
C840        C  0.16330855  0.55288862  0.63041291     0.74500
C841        C  0.07460911  0.59623162  0.61684655     0.76900
Cd842      Cd  0.11290930  0.57004222  0.64549157     1.37500
O843        O  0.08782634  0.53204700  0.63578639    -0.58100
O844        O  0.08366451  0.57556223  0.60936918    -0.56900
C845        C  0.12062655  0.59356396  0.69319420     0.76900
O846        O  0.08689779  0.60712853  0.63430911    -0.59300
O847        O  0.08140506  0.54992375  0.67175439    -0.57700
O848        O  0.15463878  0.57365958  0.62247121    -0.57700
O849        O  0.12159897  0.57002020  0.69004082    -0.56900
O850        O  0.04809110  0.63318636  0.84782844    -0.58100
C851        C  0.04281813  0.56085425  0.84721404     0.74500
O852        O  0.11340452  0.61027463  0.81505324    -0.59200
C853        C  0.06054948  0.64894436  0.86075530     0.74500
C854        C  0.11024006  0.55981880  0.86733044     0.76900
Cd855      Cd  0.07966065  0.59934186  0.84523410     1.37500
O856        O  0.04943632  0.57314287  0.86655799    -0.58100
O857        O  0.09595314  0.57324032  0.88090270    -0.56900
C858        C  0.09905197  0.60819857  0.79591907     0.76900
O859        O  0.11422571  0.56797171  0.84530247    -0.59300
O860        O  0.05022665  0.56930880  0.82615643    -0.57700
O861        O  0.08220615  0.64160890  0.86795843    -0.57700
O862        O  0.07620104  0.60264151  0.79997539    -0.56900
O863        O  0.99222941  0.39301202  0.87378722    -0.58100
C864        C  0.99733552  0.46271278  0.85527697     0.74500
O865        O  0.92794799  0.41618355  0.82857429    -0.59200
C866        C  0.97766016  0.37417565  0.87479687     0.74500
C867        C  0.92937561  0.46222799  0.88500344     0.76900
Cd868      Cd  0.96054760  0.42460463  0.86052256     1.37500
O869        O  0.99258072  0.45317697  0.87662252    -0.58100
O870        O  0.94388606  0.44843469  0.89803356    -0.56900
C871        C  0.94352867  0.41690601  0.81052241     0.76900
O872        O  0.92612379  0.45528198  0.86241556    -0.59300
O873        O  0.98779483  0.45187405  0.83626058    -0.57700
O874        O  0.95443810  0.37891134  0.87173236    -0.57700
O875        O  0.96655405  0.42015239  0.81598120    -0.56900
O876        O  0.91301956  0.47184461  0.63872178    -0.58100
C877        C  0.98384968  0.47560953  0.66311649     0.74500
O878        O  0.93647500  0.40916050  0.68741912    -0.59200
C879        C  0.89442053  0.45694391  0.63785478     0.74500
C880        C  0.97739586  0.41220975  0.62352889     0.76900
Cd881      Cd  0.94373860  0.44099960  0.65460961     1.37500
O882        O  0.96587855  0.48113141  0.64835749    -0.58100
O883        O  0.96885892  0.43326134  0.61657576    -0.56900
C884        C  0.93337141  0.42522358  0.70478327     0.76900
O885        O  0.96662094  0.40223371  0.64228585    -0.59300
O886        O  0.98128403  0.45598722  0.67626524    -0.57700
O887        O  0.89908716  0.43402505  0.64236002    -0.57700
O888        O  0.93370754  0.44815778  0.69841132    -0.56900
O889        O  0.99634187  0.88709130  0.55352646    -0.58100
C890        C  0.97563086  0.88490590  0.63103728     0.74500
O891        O  0.92698138  0.87298400  0.55076046    -0.59200
C892        C  0.00368674  0.86614683  0.54503362     0.74500
C893        C  0.94785573  0.81809298  0.58310200     0.76900
Cd894      Cd  0.96334223  0.86938883  0.57972652     1.37500
O895        O  0.99146261  0.88574180  0.61341081    -0.58100
O896        O  0.97082333  0.82462830  0.58387350    -0.56900
C897        C  0.93229652  0.89469282  0.54270256     0.76900
O898        O  0.93168574  0.83553666  0.58216917    -0.59300
O899        O  0.95328228  0.87926927  0.62460872    -0.57700
O900        O  0.99415178  0.84663602  0.55473444    -0.57700
O901        O  0.94935919  0.90639968  0.55475996    -0.56900
O902        O  0.90596507  0.64772296  0.52553364    -0.58100
C903        C  0.97947273  0.66451398  0.51968040     0.74500
O904        O  0.93647654  0.69457570  0.58707359    -0.59200
C905        C  0.88916166  0.64317070  0.54171470     0.74500
C906        C  0.97578189  0.63339485  0.58605605     0.76900
Cd907      Cd  0.93977193  0.66076588  0.55538413     1.37500
O908        O  0.96863221  0.64383160  0.52444293    -0.58100
O909        O  0.96348219  0.62269981  0.56849409    -0.56900
C910        C  0.93392616  0.71191426  0.57085028     0.76900
O911        O  0.96786601  0.65487723  0.59242963    -0.59300
O912        O  0.96920708  0.68415233  0.52815921    -0.57700
O913        O  0.89605510  0.64524424  0.56456748    -0.57700
O914        O  0.93224002  0.70515183  0.54799157    -0.56900
O915        O  0.14934814  0.64758051  0.47055648    -0.58100
C916        C  0.07790400  0.66348129  0.47444806     0.74500
O917        O  0.12617455  0.68780274  0.40518771    -0.59200
C918        C  0.16641741  0.64159590  0.45521335     0.74500
C919        C  0.07913913  0.63018125  0.40881458     0.76900
Cd920      Cd  0.11682297  0.65701255  0.43852073     1.37500
O921        O  0.09087825  0.64362065  0.47363718    -0.58100
O922        O  0.09076011  0.61966266  0.42686181    -0.56900
C923        C  0.12870192  0.70611969  0.42034987     0.76900
O924        O  0.08824440  0.65098879  0.40161148    -0.59300
O925        O  0.08543685  0.68159506  0.46093089    -0.57700
O926        O  0.15988844  0.63955350  0.43223894    -0.57700
O927        O  0.12700897  0.70122016  0.44363922    -0.56900
O928        O  0.06585845  0.87852971  0.44035947    -0.58100
C929        C  0.07735618  0.87113372  0.36574934     0.74500
O930        O  0.13175508  0.86520239  0.44640402    -0.59200
C931        C  0.06158507  0.85951942  0.45395354     0.74500
C932        C  0.11819875  0.81050051  0.40678460     0.76900
Cd933      Cd  0.09814458  0.85923233  0.41491909     1.37500
O934        O  0.06467617  0.86129239  0.38326618    -0.58100
O935        O  0.09483114  0.81464506  0.40830936    -0.56900
C936        C  0.12806948  0.88847031  0.44965581     0.76900
O937        O  0.13287507  0.82938025  0.40779224    -0.59300
O938        O  0.10003611  0.87683957  0.37116808    -0.57700
O939        O  0.07257177  0.83938934  0.44773021    -0.57700
O940        O  0.11464898  0.89923491  0.43303402    -0.56900
O941        O  0.92290520  0.56739497  0.13294037    -0.58100
C942        C  0.94546435  0.59656560  0.19471380     0.74500
O943        O  0.99261124  0.56181976  0.12992785    -0.59200
C944        C  0.93179773  0.55653793  0.11368036     0.74500
C945        C  0.97784005  0.64223809  0.13056156     0.76900
Cd946      Cd  0.96136785  0.59173689  0.14361336     1.37500
O947        O  0.92941337  0.59397627  0.17703602    -0.58100
O948        O  0.95472272  0.63652202  0.13263340    -0.56900
C949        C  0.99377302  0.55120837  0.15126129     0.76900
O950        O  0.99313825  0.62411149  0.13148493    -0.59300
O951        O  0.96834752  0.59860330  0.18838629    -0.57700
O952        O  0.95226085  0.56565605  0.10550833    -0.57700
O953        O  0.98343805  0.56210275  0.16961373    -0.56900
O954        O  0.97093962  0.60065077  0.35398901    -0.58100
C955        C  0.93427778  0.58121655  0.30059354     0.74500
O956        O  0.96976458  0.53414851  0.37059476    -0.59200
C957        C  0.98002364  0.59450251  0.37525889     0.74500
C958        C  0.89055508  0.54784402  0.36723699     0.76900
Cd959      Cd  0.94107592  0.56405176  0.35116122     1.37500
O960        O  0.93259466  0.59662053  0.31882335    -0.58100
O961        O  0.89902727  0.56933253  0.37361569    -0.56900
C962        C  0.97938190  0.52686225  0.35011461     0.76900
O963        O  0.90586695  0.53403074  0.35556232    -0.59300
O964        O  0.93784294  0.55836867  0.30609593    -0.57700
O965        O  0.96781385  0.57768127  0.38693880    -0.57700
O966        O  0.96855965  0.53403573  0.33006979    -0.56900
O967        O  0.10896328  0.45273691  0.14978158    -0.58100
C968        C  0.09640359  0.40852229  0.20111322     0.74500
O969        O  0.04130180  0.44277926  0.13701899    -0.59200
C970        C  0.10372358  0.45960194  0.12753167     0.74500
C971        C  0.05949855  0.37010152  0.13609858     0.76900
Cd972      Cd  0.07634353  0.41933115  0.15269015     1.37500
O973        O  0.11054280  0.40768121  0.18188275    -0.58100
O974        O  0.08122384  0.37824396  0.13026527    -0.56900
C975        C  0.03702377  0.45396004  0.15759064     0.76900
O976        O  0.04572338  0.38539034  0.14784466    -0.59300
O977        O  0.07342689  0.41343830  0.19735891    -0.57700
O978        O  0.08898691  0.44513557  0.11537410    -0.57700
O979        O  0.04903014  0.44650951  0.17682453    -0.56900
O980        O  0.15153511  0.48024618  0.35707157    -0.58100
C981        C  0.07790671  0.48182067  0.34801045     0.74500
O982        O  0.12475654  0.41217151  0.32206965    -0.59200
C983        C  0.16881590  0.46590240  0.36478344     0.74500
C984        C  0.08230914  0.41902239  0.37880888     0.76900
Cd985      Cd  0.11861587  0.44758669  0.35121396     1.37500
O986        O  0.09023307  0.47890357  0.36829023    -0.58100
O987        O  0.09356914  0.43750097  0.38905048    -0.56900
C988        C  0.12267492  0.42573817  0.30253572     0.76900
O989        O  0.09267687  0.41011430  0.35936484    -0.59300
O990        O  0.08694698  0.47184407  0.32837908    -0.57700
O991        O  0.16263049  0.44299785  0.36765434    -0.57700
O992        O  0.12047411  0.44924294  0.30569414    -0.56900
O993        O  0.16329318  0.56366905  0.09493808    -0.58100
C994        C  0.21472729  0.60175582  0.08152575     0.74500
O995        O  0.15033206  0.56842525  0.02423634    -0.59200
C996        C  0.14123115  0.55595646  0.09021779     0.74500
C997        C  0.15290066  0.64312851  0.04193427     0.76900
Cd998      Cd  0.16676105  0.59303248  0.05944472     1.37500
O999        O  0.19523493  0.60232697  0.09523086    -0.58100
O1000       O  0.14296331  0.63389801  0.06164953    -0.56900
C1001       C  0.16987829  0.55512031  0.02214677     0.76900
O1002       O  0.16759826  0.62876541  0.03017969    -0.59300
O1003       O  0.21158560  0.59827369  0.05811118    -0.57700
O1004       O  0.12923533  0.56841968  0.07369070    -0.57700
O1005       O  0.18897436  0.56196541  0.03476485    -0.56900
O1006       O  0.32229131  0.56338426  0.09271067    -0.58100
C1007       C  0.36425507  0.52803344  0.04915170     0.74500
O1008       O  0.40071918  0.59407141  0.06300775    -0.59200
C1009       C  0.31769922  0.58646945  0.09586606     0.74500
C1010       C  0.38447523  0.55404601  0.13373022     0.76900
Cd1011     Cd  0.36635560  0.56831050  0.08395118     1.37500
O1012       O  0.34448306  0.53533041  0.06019502    -0.58100
O1013       O  0.38011433  0.53809861  0.11654127    -0.56900
C1014       C  0.38740654  0.59902813  0.04361945     0.76900
O1015       O  0.38298603  0.57697673  0.12733882    -0.59300
O1016       O  0.38492526  0.53670459  0.05749266    -0.57700
O1017       O  0.33606966  0.60165639  0.09398699    -0.57700
O1018       O  0.36461066  0.59234809  0.04466167    -0.56900
O1019       O  0.15548100  0.44639336  0.96755480    -0.58100
C1020       C  0.15699541  0.37492956  0.95338543     0.74500
O1021       O  0.16317695  0.45128878  0.89292216    -0.59200
C1022       C  0.17337703  0.46222022  0.96683973     0.74500
C1023       C  0.21780095  0.41142503  0.91111463     0.76900
Cd1024     Cd  0.16932766  0.42348535  0.93021711     1.37500
O1025       O  0.17281127  0.39031199  0.96249401    -0.58100
O1026       O  0.21419085  0.42232212  0.93196670    -0.56900
C1027       C  0.14177043  0.45951326  0.89923561     0.76900
O1028       O  0.19849330  0.40615366  0.89782595    -0.59300
O1029       O  0.14567625  0.38228964  0.93353496    -0.57700
O1030       O  0.19024341  0.45847888  0.95060328    -0.57700
O1031       O  0.13093686  0.44722774  0.91657908    -0.56900
O1032       O  0.37579619  0.41413610  0.93967322    -0.58100
C1033       C  0.32073064  0.42425671  0.89828335     0.74500
O1034       O  0.37895161  0.48416612  0.93668157    -0.59200
C1035       C  0.39649758  0.42293334  0.94787804     0.74500
C1036       C  0.38276100  0.46650497  0.86056386     0.76900
Cd1037     Cd  0.36710090  0.44893292  0.91012732     1.37500
O1038       O  0.34020509  0.41140802  0.90320459    -0.58100
O1039       O  0.39053966  0.44561009  0.86915779    -0.56900
C1040       C  0.35947273  0.48339594  0.95030774     0.76900
O1041       O  0.36988543  0.47954730  0.87561031    -0.59300
O1042       O  0.32327762  0.44792425  0.89775676    -0.57700
O1043       O  0.40590673  0.44083145  0.93520682    -0.57700
O1044       O  0.34135515  0.47002004  0.94230680    -0.56900
O1045       O  0.54689392  0.63473239  0.05809604    -0.58100
C1046       C  0.56653480  0.63470135  0.13620135     0.74500
O1047       O  0.61869529  0.64167816  0.05853372    -0.59200
C1048       C  0.54543379  0.65524350  0.04614418     0.74500
C1049       C  0.59925069  0.69881092  0.09248536     0.76900
Cd1050     Cd  0.58131662  0.64871077  0.08533929     1.37500
O1051       O  0.55053330  0.63671801  0.11859841    -0.58100
O1052       O  0.57602204  0.69331191  0.09284676    -0.56900
C1053       C  0.61115417  0.62117999  0.04887655     0.76900
O1054       O  0.61461043  0.68075111  0.09039734    -0.59300
O1055       O  0.58945156  0.63610573  0.12974482    -0.57700
O1056       O  0.55768245  0.67361955  0.05523910    -0.57700
O1057       O  0.59240788  0.61104681  0.05956400    -0.56900
O1058       O  0.63102019  0.86263086  0.02392123    -0.58100
C1059       C  0.56023344  0.84882105  0.01879370     0.74500
O1060       O  0.60778900  0.82225321  0.09009545    -0.59200
C1061       C  0.64880329  0.86656382  0.03940914     0.74500
C1062       C  0.56206571  0.88001526  0.08423937     0.76900
Cd1063     Cd  0.59861458  0.85208372  0.05572283     1.37500
O1064       O  0.57338724  0.86855801  0.02144125    -0.58100
O1065       O  0.57896654  0.89140481  0.07183005    -0.56900
C1066       C  0.60767956  0.80329467  0.07554453     0.76900
O1067       O  0.56541167  0.85669100  0.08716629    -0.59300
O1068       O  0.56772037  0.82943206  0.03037586    -0.57700
O1069       O  0.64299583  0.86585135  0.06257843    -0.57700
O1070       O  0.60414789  0.80735175  0.05225872    -0.56900
O1071       O  0.39057395  0.86717825  0.97355339    -0.58100
C1072       C  0.46067493  0.85517109  0.97724754     0.74500
O1073       O  0.41173865  0.83337602  0.90540251    -0.59200
C1074       C  0.37448851  0.87833351  0.96002483     0.74500
C1075       C  0.46335439  0.88474602  0.91490838     0.76900
Cd1076     Cd  0.42250112  0.86087533  0.94134864     1.37500
O1077       O  0.45148950  0.87652846  0.97237592    -0.58100
O1078       O  0.44991646  0.89715957  0.93017551    -0.56900
C1079       C  0.41338944  0.81340662  0.91838938     0.76900
O1080       O  0.45432603  0.86379089  0.90799885    -0.59300
O1081       O  0.44886284  0.83601909  0.96915827    -0.57700
O1082       O  0.38112023  0.88320638  0.93755845    -0.57700
O1083       O  0.41740212  0.81580130  0.94183317    -0.56900
O1084       O  0.43846997  0.66759277  0.95329747    -0.58100
C1085       C  0.43776609  0.71339617  0.89926202     0.74500
O1086       O  0.49201313  0.64524698  0.93617474    -0.59200
C1087       C  0.42991664  0.64541149  0.95344621     0.74500
C1088       C  0.48037837  0.64881085  0.86463783     0.76900
Cd1089     Cd  0.45981204  0.66642932  0.91241678     1.37500
O1090       O  0.42469117  0.69337463  0.89894642    -0.58100
O1091       O  0.45929951  0.64051377  0.87244158    -0.56900
C1092       C  0.49872237  0.66466181  0.94842201     0.76900
O1093       O  0.49165772  0.66385654  0.87939167    -0.59300
O1094       O  0.46094430  0.71127766  0.90437653    -0.57700
O1095       O  0.43236290  0.63315029  0.93293135    -0.57700
O1096       O  0.49011725  0.68554560  0.94093885    -0.56900
O1097       O  0.86173148  0.63257579  0.96982262    -0.58100
C1098       C  0.83981533  0.56078473  0.96976428     0.74500
O1099       O  0.83891871  0.61008644  0.89745160    -0.59200
C1100       C  0.87771226  0.64668580  0.95930736     0.74500
C1101       C  0.89112948  0.56011559  0.91686582     0.76900
Cd1102     Cd  0.85987721  0.59921437  0.93801420     1.37500
O1103       O  0.85705962  0.57553390  0.97736164    -0.58100
O1104       O  0.89495371  0.56848026  0.93895092    -0.56900
C1105       C  0.81834421  0.61574412  0.90801805     0.76900
O1106       O  0.87597866  0.57273343  0.90346120    -0.59300
O1107       O  0.82972489  0.56580422  0.94873409    -0.57700
O1108       O  0.88766356  0.63795736  0.93940775    -0.57700
O1109       O  0.81795481  0.61513038  0.93184631    -0.56900
O1110       O  0.67197257  0.53371616  0.87773354    -0.58100
C1111       C  0.69652819  0.53242259  0.94831144     0.74500
O1112       O  0.70055418  0.60491731  0.89920757    -0.59200
C1113       C  0.65898819  0.54665114  0.86254598     0.74500
C1114       C  0.64736928  0.58851591  0.95028684     0.76900
Cd1115     Cd  0.67743114  0.56589267  0.91082728     1.37500
O1116       O  0.67860253  0.52598239  0.93377218    -0.58100
O1117       O  0.64312122  0.56634422  0.94253784    -0.56900
C1118       C  0.72054334  0.59331426  0.89356236     0.76900
O1119       O  0.66202740  0.60145563  0.93667262    -0.59300
O1120       O  0.70724910  0.55320123  0.94370586    -0.57700
O1121       O  0.65221180  0.56799659  0.87069637    -0.57700
O1122       O  0.72004136  0.56963666  0.89571000    -0.56900
O1123       O  0.67186847  0.48278126  0.11239738    -0.58100
C1124       C  0.69583084  0.47919908  0.04072872     0.74500
O1125       O  0.69429529  0.40929946  0.09060687    -0.59200
C1126       C  0.65664022  0.47192424  0.12709985     0.74500
C1127       C  0.64099338  0.42850959  0.04144938     0.76900
Cd1128     Cd  0.67357601  0.44969702  0.07983943     1.37500
O1129       O  0.67965657  0.48842735  0.05554888    -0.58100
O1130       O  0.64073565  0.45166553  0.04688336    -0.56900
C1131       C  0.71502966  0.41981303  0.09629875     0.76900
O1132       O  0.65247480  0.41453282  0.05706050    -0.59300
O1133       O  0.70354831  0.45728646  0.04561960    -0.57700
O1134       O  0.64707747  0.45156528  0.11888745    -0.57700
O1135       O  0.71554895  0.44357748  0.09593157    -0.56900
O1136       O  0.85683090  0.39294189  0.01887180    -0.58100
C1137       C  0.83871987  0.46658271  0.02114465     0.74500
O1138       O  0.83439277  0.41125116  0.09036827    -0.59200
C1139       C  0.87291642  0.37885377  0.02922934     0.74500
C1140       C  0.89070484  0.46181794  0.07495400     0.76900
Cd1141     Cd  0.85657162  0.42586622  0.05150109     1.37500
O1142       O  0.85275262  0.44971467  0.01198569    -0.58100
O1143       O  0.89471854  0.45379838  0.05282688    -0.56900
C1144       C  0.81373619  0.40731076  0.07889614     0.76900
O1145       O  0.87395023  0.45010617  0.08728191    -0.59300
O1146       O  0.83092222  0.46305751  0.04334228    -0.57700
O1147       O  0.88342828  0.38742464  0.04904588    -0.57700
O1148       O  0.81358500  0.41128119  0.05540276    -0.56900
O1149       O  0.64075570  0.14013470  0.95541603    -0.58100
C1150       C  0.57556676  0.15533922  0.96689373     0.74500
O1151       O  0.61283560  0.18821232  0.89322120    -0.59200
C1152       C  0.65925371  0.14016386  0.94058293     0.74500
C1153       C  0.56955277  0.13014006  0.89670700     0.76900
Cd1154     Cd  0.60891611  0.15527152  0.92566093     1.37500
O1155       O  0.58472886  0.13505222  0.95858951    -0.58100
O1156       O  0.58846837  0.11778485  0.90447803    -0.56900
C1157       C  0.61408161  0.20604422  0.90910946     0.76900
O1158       O  0.57143808  0.15371922  0.89879519    -0.59300
O1159       O  0.58452268  0.17552200  0.95803218    -0.57700
O1160       O  0.65425130  0.14505592  0.91766603    -0.57700
O1161       O  0.61485723  0.20009041  0.93220026    -0.56900
O1162       O  0.61734016  0.36905447  0.93372554    -0.58100
C1163       C  0.59697652  0.31118741  0.89919182     0.74500
O1164       O  0.54827006  0.37617039  0.93652450    -0.59200
C1165       C  0.60892748  0.38891642  0.94376024     0.74500
C1166       C  0.56349401  0.37735448  0.85708995     0.76900
Cd1167     Cd  0.57947559  0.36109409  0.90724250     1.37500
O1168       O  0.61235257  0.32953020  0.89999239    -0.58100
O1169       O  0.58639293  0.37801076  0.86390640    -0.56900
C1170       C  0.54577452  0.35539601  0.94787236     0.76900
O1171       O  0.54802942  0.37132313  0.87414084    -0.59300
O1172       O  0.57379447  0.31637189  0.90096022    -0.57700
O1173       O  0.58997820  0.39856876  0.93297718    -0.57700
O1174       O  0.55546271  0.33622726  0.93774522    -0.56900
O1175       O  0.49516901  0.37505318  0.11617401    -0.58100
C1176       C  0.50123888  0.35655961  0.04580816     0.74500
O1177       O  0.43131409  0.32970395  0.07988756    -0.59200
C1178       C  0.48002611  0.37733127  0.13428205     0.74500
C1179       C  0.43577159  0.39286293  0.04629543     0.76900
Cd1180     Cd  0.46391236  0.36337045  0.08293860     1.37500
O1181       O  0.49897665  0.37728039  0.05730466    -0.58100
O1182       O  0.45790586  0.39875537  0.05305669    -0.56900
C1183       C  0.44669036  0.31211263  0.08449756     0.76900
O1184       O  0.42488863  0.37663218  0.05999727    -0.59300
O1185       O  0.48827371  0.33829957  0.05388728    -0.57700
O1186       O  0.45686787  0.37537033  0.12848835    -0.57700
O1187       O  0.46904341  0.31859051  0.08989162    -0.56900
O1188       O  0.46974049  0.14791782  0.09245370    -0.58100
C1189       C  0.43637004  0.20553009  0.06969822     0.74500
O1190       O  0.46731862  0.13604793  0.02170476    -0.59200
C1191       C  0.47779042  0.12644847  0.08617667     0.74500
C1192       C  0.39106287  0.14025225  0.04155872     0.76900
Cd1193     Cd  0.44223817  0.15395805  0.05531627     1.37500
O1194       O  0.44007374  0.18845211  0.08594181    -0.58100
O1195       O  0.39765489  0.14239102  0.06451262    -0.56900
C1196       C  0.48134210  0.15519598  0.01958476     0.76900
O1197       O  0.40855746  0.14170351  0.02557090    -0.59300
O1198       O  0.43421724  0.19838815  0.04696941    -0.57700
O1199       O  0.46579836  0.11562556  0.06850092    -0.57700
O1200       O  0.47411797  0.17496124  0.03063378    -0.56900
C1201       C  0.45111394  0.26861365  0.10013682    -0.09400
C1202       C  0.43978915  0.28521230  0.08302446     0.06800
C1203       C  0.42497990  0.27532189  0.06316555    -0.03200
C1204       C  0.42315133  0.24923616  0.05990872    -0.07600
C1205       C  0.43551340  0.23258214  0.07636420     0.05900
C1206       C  0.44883524  0.24257005  0.09726766    -0.02700
Br1207     Br  0.46614793  0.22217759  0.12162145    -0.02400
H1208       H  0.46248572  0.27598032  0.11549791     0.09800
H1209       H  0.41266602  0.24196055  0.04389203     0.07800
Br1210     Br  0.40899316  0.29622806  0.03837089    -0.02800
C1211       C  0.50916731  0.33515869  0.00535892    -0.09400
C1212       C  0.51593299  0.35431046  0.02249625     0.06800
C1213       C  0.53349957  0.37282291  0.01509870    -0.03200
C1214       C  0.54264416  0.37271434  0.99053289    -0.07600
C1215       C  0.53476625  0.35440720  0.97308984     0.05900
C1216       C  0.51838297  0.33511705  0.98077145    -0.02700
Br1217     Br  0.50607107  0.30985431  0.95792235    -0.02400
H1218       H  0.49550633  0.32090409  0.01057604     0.09800
H1219       H  0.55616214  0.38702046  0.98502232     0.07800
Br1220     Br  0.54599053  0.39866673  0.03732920    -0.02800
C1221       C  0.54063746  0.13242635  0.98720597    -0.09400
C1222       C  0.55372218  0.15518616  0.98388054     0.06800
C1223       C  0.54343789  0.17751463  0.99372700    -0.03200
C1224       C  0.51956348  0.17700020  0.00446930    -0.07600
C1225       C  0.50577268  0.15447463  0.00649056     0.05900
C1226       C  0.51710452  0.13175993  0.99870304    -0.02700
Br1227     Br  0.50260417  0.09894770  0.00385049    -0.02400
H1228       H  0.54843983  0.11496070  0.98026217     0.09800
H1229       H  0.51188799  0.19445525  0.01155050     0.07800
Br1230     Br  0.56083985  0.20931589  0.99383452    -0.02800
C1231       C  0.62985571  0.24979513  0.91301589    -0.09400
C1232       C  0.61314233  0.23264213  0.90164687     0.06800
C1233       C  0.59328284  0.24170916  0.88655315    -0.03200
C1234       C  0.58924792  0.26758129  0.88476720    -0.07600
C1235       C  0.60511981  0.28478336  0.89727612     0.05900
C1236       C  0.62634718  0.27573798  0.91049644    -0.02700
Br1237     Br  0.64984140  0.29754192  0.92752191    -0.02400
H1238       H  0.64516222  0.24297487  0.92464801     0.09800
H1239       H  0.57297365  0.27425454  0.87440295     0.07800
Br1240     Br  0.56926770  0.21971656  0.87050713    -0.02800
C1241       C  0.61322543  0.42417978  0.97466868    -0.09400
C1242       C  0.61889013  0.39925476  0.96804621     0.06800
C1243       C  0.63048723  0.38381959  0.98643829    -0.03200
C1244       C  0.63623256  0.39348513  0.01041550    -0.07600
C1245       C  0.63085742  0.41851278  0.01700605     0.05900
C1246       C  0.61907407  0.43390656  0.99863588    -0.02700
Br1247     Br  0.61000555  0.46833270  0.00455707    -0.02400
H1248       H  0.60386215  0.43622199  0.96113871     0.09800
H1249       H  0.64541032  0.38124618  0.02394119     0.07800
Br1250     Br  0.63792759  0.34892075  0.98097138    -0.02800
C1251       C  0.75625996  0.41644022  0.11736100    -0.09400
C1252       C  0.73852880  0.40591166  0.10062492     0.06800
C1253       C  0.74666721  0.38824866  0.08266642    -0.03200
C1254       C  0.77243128  0.38590357  0.07804088    -0.07600
C1255       C  0.79009187  0.40034456  0.09166370     0.05900
C1256       C  0.78205869  0.41344673  0.11325238    -0.02700
Br1257     Br  0.80490105  0.43139805  0.13498299    -0.02400
H1258       H  0.75014791  0.42942206  0.13180737     0.09800
H1259       H  0.77846088  0.37494370  0.06195501     0.07800
Br1260     Br  0.72374643  0.37072525  0.06060447    -0.02800
C1261       C  0.70715360  0.53092528  0.99367401    -0.09400
C1262       C  0.70284206  0.51778655  0.97102131     0.06800
C1263       C  0.70105295  0.49136731  0.97152414    -0.03200
C1264       C  0.70157047  0.47876715  0.99464533    -0.07600
C1265       C  0.70309060  0.49222035  0.01741328     0.05900
C1266       C  0.70707868  0.51835271  0.01681090    -0.02700
Br1267     Br  0.71182463  0.53759434  0.04711349    -0.02400
H1268       H  0.70880176  0.55124107  0.99357959     0.09800
H1269       H  0.69872645  0.45857533  0.99488440     0.07800
Br1270     Br  0.69679758  0.47174188  0.94138550    -0.02800
C1271       C  0.83153625  0.51506489  0.96936270    -0.09400
C1272       C  0.83382446  0.53741609  0.98337012     0.06800
C1273       C  0.83431263  0.53619906  0.00984627    -0.03200
C1274       C  0.83394840  0.51278983  0.02182270    -0.07600
C1275       C  0.83371467  0.49034677  0.00774819     0.05900
C1276       C  0.83182762  0.49161938  0.98128176    -0.02700
Br1277     Br  0.83023918  0.46208338  0.96047373    -0.02400
H1278       H  0.83122364  0.51574308  0.94892508     0.09800
H1279       H  0.83539405  0.51215796  0.04217613     0.07800
Br1280     Br  0.83596339  0.56591912  0.03039249    -0.02800
C1281       C  0.78811181  0.60094408  0.87624519    -0.09400
C1282       C  0.79478342  0.61944874  0.89391637     0.06800
C1283       C  0.77588421  0.63498801  0.90386914    -0.03200
C1284       C  0.75057848  0.62834939  0.90050152    -0.07600
C1285       C  0.74418237  0.60639323  0.88718557     0.05900
C1286       C  0.76284852  0.59423153  0.87287881    -0.02700
Br1287     Br  0.75512908  0.56660932  0.85073765    -0.02400
H1288       H  0.80249762  0.58937465  0.86774743     0.09800
H1289       H  0.73633284  0.63857253  0.91075367     0.07800
Br1290     Br  0.78402147  0.66335860  0.92482807    -0.02800
C1291       C  0.43200008  0.78299806  0.88909927    -0.09400
C1292       C  0.41330396  0.78833972  0.90686327     0.06800
C1293       C  0.39917236  0.76851593  0.91731100    -0.03200
C1294       C  0.40545403  0.74367404  0.91174953    -0.07600
C1295       C  0.42636367  0.73834342  0.89669183     0.05900
C1296       C  0.43887688  0.75813063  0.88421559    -0.02700
Br1297     Br  0.46648703  0.75223819  0.86179360    -0.02400
H1298       H  0.44294777  0.79815487  0.88091586     0.09800
H1299       H  0.39561898  0.72858853  0.92133412     0.07800
Br1300     Br  0.37262087  0.77438207  0.94092916    -0.02800
C1301       C  0.51768264  0.83087034  0.01217402    -0.09400
C1302       C  0.53583663  0.84904430  0.00545033     0.06800
C1303       C  0.52874375  0.86902516  0.98949707    -0.03200
C1304       C  0.50384244  0.87092844  0.98146687    -0.07600
C1305       C  0.48567214  0.85316234  0.98874492     0.05900
C1306       C  0.49274786  0.83278256  0.00395662    -0.02700
Br1307     Br  0.46884512  0.80821459  0.01551156    -0.02400
H1308       H  0.52257759  0.81565188  0.02482825     0.09800
H1309       H  0.49876768  0.88618508  0.96891663     0.07800
Br1310     Br  0.55186572  0.89411210  0.97740421    -0.02800
C1311       C  0.63580093  0.62817425  0.00957501    -0.09400
C1312       C  0.62202684  0.61142476  0.02479997     0.06800
C1313       C  0.61648860  0.58727970  0.01499474    -0.03200
C1314       C  0.62395032  0.58080811  0.99044268    -0.07600
C1315       C  0.63737734  0.59772474  0.97501381     0.05900
C1316       C  0.64348679  0.62168194  0.98514526    -0.02700
Br1317     Br  0.66226448  0.64684522  0.96714759    -0.02400
H1318       H  0.64019004  0.64688979  0.01646675     0.09800
H1319       H  0.61968563  0.56204885  0.98364487     0.07800
Br1320     Br  0.60005528  0.56164872  0.03445292    -0.02800
C1321       C  0.51221811  0.63918008  0.98462940    -0.09400
C1322       C  0.51316364  0.66238248  0.97207230     0.06800
C1323       C  0.52425399  0.68322588  0.98432595    -0.03200
C1324       C  0.53349566  0.68061461  0.00886692    -0.07600
C1325       C  0.53218427  0.65746050  0.02166107     0.05900
C1326       C  0.52138155  0.63651242  0.00913040    -0.02700
Br1327     Br  0.51807183  0.60357684  0.02370149    -0.02400
H1328       H  0.50336208  0.62303775  0.97570714     0.09800
H1329       H  0.54226908  0.69680428  0.01775997     0.07800
Br1330     Br  0.52837427  0.71546163  0.96848304    -0.02800
C1331       C  0.59550793  0.74207320  0.10920113    -0.09400
C1332       C  0.60737891  0.72526065  0.09272537     0.06800
C1333       C  0.62303526  0.73475260  0.07357688    -0.03200
C1334       C  0.62438918  0.76063890  0.06954737    -0.07600
C1335       C  0.61083571  0.77739086  0.08466827     0.05900
C1336       C  0.59745758  0.76807062  0.10559179    -0.02700
Br1337     Br  0.57901680  0.78949247  0.12795850    -0.02400
H1338       H  0.58354536  0.73492354  0.12405649     0.09800
H1339       H  0.63495158  0.76764419  0.05357406     0.07800
Br1340     Br  0.64007183  0.71339718  0.05003206    -0.02800
C1341       C  0.39096621  0.40447785  0.99070129    -0.09400
C1342       C  0.40739715  0.41446215  0.97246095     0.06800
C1343       C  0.43275775  0.41871116  0.97945767    -0.03200
C1344       C  0.44108772  0.41272480  0.00391175    -0.07600
C1345       C  0.42471838  0.40244958  0.02211152     0.05900
C1346       C  0.39924035  0.39862467  0.01519184    -0.02700
Br1347     Br  0.37439938  0.38629746  0.03833028    -0.02400
H1348       H  0.37122348  0.40177547  0.98612438     0.09800
H1349       H  0.46085888  0.41542178  0.00841635     0.07800
Br1350     Br  0.45735901  0.43137944  0.95624033    -0.02800
C1351       C  0.25254965  0.41732290  0.88080926    -0.09400
C1352       C  0.24367695  0.40630083  0.90307320     0.06800
C1353       C  0.26097982  0.39575978  0.92025596    -0.03200
C1354       C  0.28679251  0.39868568  0.91631828    -0.07600
C1355       C  0.29557934  0.41289420  0.89594195     0.05900
C1356       C  0.27842589  0.42105594  0.87735460    -0.02700
Br1357     Br  0.28942436  0.43941863  0.84826771    -0.02400
H1358       H  0.23940683  0.42540058  0.86745893     0.09800
H1359       H  0.29982814  0.39233894  0.93073472     0.07800
Br1360     Br  0.25023128  0.37975445  0.95085409    -0.02800
C1361       C  0.41622105  0.63003826  0.02274309    -0.09400
C1362       C  0.39771616  0.61127658  0.02053246     0.06800
C1363       C  0.38969095  0.60403556  0.99601390    -0.03200
C1364       C  0.40018639  0.61542605  0.97457791    -0.07600
C1365       C  0.41850461  0.63441710  0.97673660     0.05900
C1366       C  0.42643446  0.64174427  0.00132996    -0.02700
Br1367     Br  0.45224929  0.66650421  0.00740817    -0.02400
H1368       H  0.42277519  0.63571216  0.04130235     0.09800
H1369       H  0.39401700  0.60929156  0.95605758     0.07800
Br1370     Br  0.36574717  0.57739405  0.99023498    -0.02800
C1371       C  0.33937631  0.50963218  0.01387104    -0.09400
C1372       C  0.36293906  0.51282226  0.02580607     0.06800
C1373       C  0.38485825  0.50559951  0.01275573    -0.03200
C1374       C  0.38295505  0.49706041  0.98798317    -0.07600
C1375       C  0.35958287  0.49492439  0.97565198     0.05900
C1376       C  0.33751457  0.50081408  0.98904641    -0.02700
Br1377     Br  0.30452201  0.49905512  0.97416706    -0.02400
H1378       H  0.32228899  0.51518921  0.02340231     0.09800
H1379       H  0.40006346  0.49153831  0.97842364     0.07800
Br1380     Br  0.41818017  0.50666201  0.02712725    -0.02800
C1381       C  0.15025444  0.49377339  0.99152933    -0.09400
C1382       C  0.17342374  0.48497060  0.98264449     0.06800
C1383       C  0.19537381  0.49949235  0.98683493    -0.03200
C1384       C  0.19358156  0.52274273  0.99888187    -0.07600
C1385       C  0.17028321  0.53186888  0.00713300     0.05900
C1386       C  0.14846442  0.51692931  0.00368877    -0.02700
Br1387     Br  0.11582383  0.52596322  0.01622332    -0.02400
H1388       H  0.13323496  0.48281111  0.98857626     0.09800
H1389       H  0.21061574  0.53361168  0.00212622     0.07800
Br1390     Br  0.22850992  0.48827606  0.97794100    -0.02800
C1391       C  0.24823960  0.58455716  0.10854518    -0.09400
C1392       C  0.24023444  0.60339754  0.09193765     0.06800
C1393       C  0.25800446  0.61987707  0.08128909    -0.03200
C1394       C  0.28363781  0.61590842  0.08542102    -0.07600
C1395       C  0.29175038  0.59505434  0.09933997     0.05900
C1396       C  0.27391622  0.58012048  0.11214821    -0.02700
Br1397     Br  0.28360905  0.55246570  0.13331428    -0.02400
H1398       H  0.23462789  0.57182778  0.11685456     0.09800
H1399       H  0.29717128  0.62764031  0.07566483     0.07800
Br1400     Br  0.24811753  0.64657763  0.05912551    -0.02800
C1401       C  0.13489164  0.49501319  0.12822641    -0.09400
C1402       C  0.11338198  0.48395080  0.11721472     0.06800
C1403       C  0.10008456  0.49790008  0.09877098    -0.03200
C1404       C  0.10901605  0.52155593  0.09107034    -0.07600
C1405       C  0.13088489  0.53237052  0.10163038     0.05900
C1406       C  0.14361661  0.51885046  0.12083264    -0.02700
Br1407     Br  0.17256552  0.53177379  0.13860582    -0.02400
H1408       H  0.14495076  0.48513254  0.14298685     0.09800
H1409       H  0.09874183  0.53149166  0.07650987     0.07800
Br1410     Br  0.06853549  0.48696273  0.08455564    -0.02800
C1411       C  0.12952467  0.41758792  0.23265581    -0.09400
C1412       C  0.10628179  0.40620204  0.22694317     0.06800
C1413       C  0.09121150  0.39686734  0.24673704    -0.03200
C1414       C  0.09856347  0.40100012  0.27171278    -0.07600
C1415       C  0.12037283  0.41486683  0.27727503     0.05900
C1416       C  0.13647841  0.42225068  0.25767990    -0.02700
Br1417     Br  0.16746408  0.43975385  0.26428323    -0.02400
H1418       H  0.14134399  0.42473137  0.21767653     0.09800
H1419       H  0.08610479  0.39522163  0.28679027     0.07800
Br1420     Br  0.05970134  0.37980007  0.24102298    -0.02800
C1421       C  0.01755849  0.51379363  0.32705558    -0.09400
C1422       C  0.00342063  0.51298806  0.34940231     0.06800
C1423       C  0.01418639  0.50194028  0.37109078    -0.03200
C1424       C  0.03879679  0.49289312  0.37025451    -0.07600
C1425       C  0.05305940  0.49411039  0.34803883     0.05900
C1426       C  0.04206318  0.50440845  0.32614933    -0.02700
Br1427     Br  0.05967003  0.50730874  0.29473586    -0.02400
H1428       H  0.00983975  0.52248930  0.31027579     0.09800
H1429       H  0.04656425  0.48413443  0.38700032     0.07800
Br1430     Br  0.99628219  0.49748698  0.40218087    -0.02800
C1431       C  0.93460275  0.51849623  0.08566282    -0.09400
C1432       C  0.92034710  0.53312074  0.10261022     0.06800
C1433       C  0.89699928  0.52323046  0.11082498    -0.03200
C1434       C  0.88849708  0.49979867  0.10205431    -0.07600
C1435       C  0.90261050  0.48526884  0.08514887     0.05900
C1436       C  0.92603820  0.49487300  0.07700008    -0.02700
Br1437     Br  0.94791944  0.47596736  0.05550446    -0.02400
H1438       H  0.95292435  0.52507771  0.07963614     0.09800
H1439       H  0.87026622  0.49307705  0.10826923     0.07800
Br1440     Br  0.87531222  0.54028163  0.13404534    -0.02800
C1441       C  0.99780616  0.50812052  0.13570275    -0.09400
C1442       C  0.00418723  0.52607504  0.15405507     0.06800
C1443       C  0.01762032  0.51882140  0.17570733    -0.03200
C1444       C  0.02623282  0.49419865  0.17770440    -0.07600
C1445       C  0.02143534  0.47660614  0.15841724     0.05900
C1446       C  0.00594831  0.48340060  0.13788909    -0.02700
Br1447     Br  0.99498071  0.45997599  0.11240450    -0.02400
H1448       H  0.98610145  0.51326718  0.11974781     0.09800
H1449       H  0.03805688  0.48932264  0.19364725     0.07800
Br1450     Br  0.02653959  0.54222620  0.20192958    -0.02800
C1451       C  0.95141692  0.61153931  0.23866194    -0.09400
C1452       C  0.93850442  0.59584914  0.22156600     0.06800
C1453       C  0.92211432  0.57715855  0.23090914    -0.03200
C1454       C  0.91955080  0.57396703  0.25692531    -0.07600
C1455       C  0.93319592  0.58899875  0.27399105     0.05900
C1456       C  0.94888110  0.60827941  0.26471238    -0.02700
Br1457     Br  0.96994370  0.62822814  0.28654805    -0.02400
H1458       H  0.96449956  0.62558717  0.23172234     0.09800
H1459       H  0.90791406  0.55871591  0.26387063     0.07800
Br1460     Br  0.90579085  0.55294098  0.20934999    -0.02800
C1461       C  0.03989322  0.60505824  0.41482808    -0.09400
C1462       C  0.05470808  0.62001604  0.39879524     0.06800
C1463       C  0.04427057  0.62724521  0.37533406    -0.03200
C1464       C  0.01971260  0.61958249  0.36856048    -0.07600
C1465       C  0.00476166  0.60472892  0.38473370     0.05900
C1466       C  0.01535255  0.59752996  0.40821984    -0.02700
Br1467     Br  0.99763483  0.57776549  0.43278568    -0.02400
H1468       H  0.04717287  0.59971333  0.43317694     0.09800
H1469       H  0.01249554  0.62491065  0.35019526     0.07800
Br1470     Br  0.06292578  0.64660338  0.35118436    -0.02800
C1471       C  0.14581275  0.74902646  0.42699965    -0.09400
C1472       C  0.13180890  0.73230679  0.41182769     0.06800
C1473       C  0.11736390  0.74190891  0.39165928    -0.03200
C1474       C  0.11497770  0.76789131  0.38881294    -0.07600
C1475       C  0.12724446  0.78454060  0.40536129     0.05900
C1476       C  0.14380566  0.77502756  0.42377165    -0.02700
Br1477     Br  0.16102557  0.79653090  0.44742358    -0.02400
H1478       H  0.15706534  0.74189568  0.44247507     0.09800
H1479       H  0.10214956  0.77512125  0.37465182     0.07800
Br1480     Br  0.09752086  0.72090200  0.36966612    -0.02800
C1481       C  0.02093275  0.64542563  0.51334183    -0.09400
C1482       C  0.00433693  0.66504350  0.50751744     0.06800
C1483       C  0.01295099  0.68526635  0.49272009    -0.03200
C1484       C  0.03744086  0.68488631  0.48314333    -0.07600
C1485       C  0.05390414  0.66485453  0.48841714     0.05900
C1486       C  0.04551442  0.64523109  0.50427928    -0.02700
Br1487     Br  0.06629473  0.61772606  0.51504831    -0.02400
H1488       H  0.01492363  0.63028936  0.52564945     0.09800
H1489       H  0.04333586  0.70007982  0.47088902     0.07800
Br1490     Br  0.99195636  0.71320702  0.48389253    -0.02800
C1491       C  0.01795595  0.88358677  0.50477686    -0.09400
C1492       C  0.02038621  0.86478775  0.52310783     0.06800
C1493       C  0.03596464  0.84398436  0.51833899    -0.03200
C1494       C  0.04872502  0.84239960  0.49542574    -0.07600
C1495       C  0.04601600  0.86108473  0.47686048     0.05900
C1496       C  0.03018426  0.88178053  0.48169790    -0.02700
Br1497     Br  0.02266988  0.90745722  0.45736071    -0.02400
H1498       H  0.00540380  0.89929566  0.50789342     0.09800
H1499       H  0.06111010  0.82657394  0.49229177     0.07800
Br1500     Br  0.04124465  0.81767237  0.54255402    -0.02800
C1501       C  0.95389389  0.77466566  0.59838294    -0.09400
C1502       C  0.94076323  0.79130784  0.58269169     0.06800
C1503       C  0.92326490  0.78164781  0.56505976    -0.03200
C1504       C  0.92026155  0.75562348  0.56250586    -0.07600
C1505       C  0.93411392  0.73887773  0.57756161     0.05900
C1506       C  0.95049998  0.74866785  0.59623619    -0.02700
Br1507     Br  0.97074489  0.72780588  0.61769990    -0.02400
H1508       H  0.96745416  0.78192888  0.61193104     0.09800
H1509       H  0.90771047  0.74841066  0.54799968     0.07800
Br1510     Br  0.90506134  0.80279892  0.54207152    -0.02800
C1511       C  0.90891810  0.50344450  0.87621536    -0.09400
C1512       C  0.91850627  0.48650892  0.89425354     0.06800
C1513       C  0.91973140  0.49458561  0.91965470    -0.03200
C1514       C  0.91172114  0.51888994  0.92626497    -0.07600
C1515       C  0.90213963  0.53577107  0.90815582     0.05900
C1516       C  0.90078264  0.52761192  0.88279975    -0.02700
Br1517     Br  0.88856641  0.54838978  0.85579348    -0.02400
H1518       H  0.90811719  0.49807578  0.85651107     0.09800
H1519       H  0.91238442  0.52433450  0.94593910     0.07800
Br1520     Br  0.93111556  0.47327823  0.94653274    -0.02800
C1521       C  0.94864866  0.39813593  0.76850599    -0.09400
C1522       C  0.93573104  0.41488678  0.78411374     0.06800
C1523       C  0.91880398  0.43216505  0.77345676    -0.03200
C1524       C  0.91665214  0.43382054  0.74726190    -0.07600
C1525       C  0.93095195  0.41824694  0.73149273     0.05900
C1526       C  0.94609806  0.39935939  0.74233593    -0.02700
Br1527     Br  0.96619463  0.37671863  0.72277009    -0.02400
H1528       H  0.96174497  0.38485046  0.77668718     0.09800
H1529       H  0.90489707  0.44834434  0.73917061     0.07800
Br1530     Br  0.90092464  0.45616505  0.79355766    -0.02800
C1531       C  0.14736498  0.49837177  0.87302024    -0.09400
C1532       C  0.13174827  0.48383926  0.88886070     0.06800
C1533       C  0.10907008  0.49491257  0.89732254    -0.03200
C1534       C  0.10326394  0.51988048  0.89091365    -0.07600
C1535       C  0.11921276  0.53451410  0.87567154     0.05900
C1536       C  0.14130819  0.52323250  0.86634177    -0.02700
Br1537     Br  0.16480445  0.54123596  0.84563652    -0.02400
H1538       H  0.16496881  0.49067894  0.86635030     0.09800
H1539       H  0.08565696  0.52773037  0.89743536     0.07800
Br1540     Br  0.08472656  0.47734719  0.91744591    -0.02800
C1541       C  0.03000551  0.52014283  0.82838166    -0.09400
C1542       C  0.02948896  0.53650397  0.84922235     0.06800
C1543       C  0.01950586  0.52767053  0.87224453    -0.03200
C1544       C  0.01051396  0.50307633  0.87392080    -0.07600
C1545       C  0.01089198  0.48682059  0.85307505     0.05900
C1546       C  0.02087367  0.49553802  0.83007476    -0.02700
Br1547     Br  0.02352611  0.47479850  0.80050522    -0.02400
H1548       H  0.03819974  0.52624448  0.81074457     0.09800
H1549       H  0.00232099  0.49693191  0.89156636     0.07800
Br1550     Br  0.01665180  0.54790367  0.90215266    -0.02800
C1551       C  0.03855092  0.62598788  0.62106451    -0.09400
C1552       C  0.04970259  0.60599138  0.60779371     0.06800
C1553       C  0.03508843  0.59381622  0.58891673    -0.03200
C1554       C  0.01062224  0.60214714  0.58339003    -0.07600
C1555       C  0.99974507  0.62254002  0.59622837     0.05900
C1556       C  0.01397457  0.63412744  0.61570930    -0.02700
Br1557     Br  0.00110396  0.66077649  0.63636706    -0.02400
H1558       H  0.04878927  0.63509926  0.63627873     0.09800
H1559       H  0.00031065  0.59294527  0.56828835     0.07800
Br1560     Br  0.04698555  0.56582857  0.56947829    -0.02800
C1561       C  0.05302335  0.49271209  0.66103420    -0.09400
C1562       C  0.05176064  0.51886650  0.65906762     0.06800
C1563       C  0.02818855  0.53087074  0.65955376    -0.03200
C1564       C  0.00616554  0.51657756  0.66147961    -0.07600
C1565       C  0.00731626  0.49036728  0.66364778     0.05900
C1566       C  0.03104491  0.47839396  0.66363526    -0.02700
Br1567     Br  0.03470312  0.44249646  0.66503379    -0.02400
H1568       H  0.07111285  0.48342032  0.66043181     0.09800
H1569       H  0.98810244  0.52592980  0.66106826     0.07800
Br1570     Br  0.02504055  0.56664616  0.65623970    -0.02800
C1571       C  0.09992707  0.61903310  0.72564963    -0.09400
C1572       C  0.12039363  0.60404649  0.71880131     0.06800
C1573       C  0.13648237  0.59458373  0.73767396    -0.03200
C1574       C  0.13062144  0.59828257  0.76311226    -0.07600
C1575       C  0.10839097  0.61069477  0.76992288     0.05900
C1576       C  0.09355110  0.62202133  0.75099364    -0.02700
Br1577     Br  0.06338777  0.64023874  0.75855162    -0.02400
H1578       H  0.08739969  0.62635471  0.71124962     0.09800
H1579       H  0.14228848  0.58963932  0.77744575     0.07800
Br1580     Br  0.16560742  0.57504314  0.72939172    -0.02800
C1581       C  0.01590909  0.39076137  0.37995220    -0.09400
C1582       C  0.00618002  0.40103239  0.40229244     0.06800
C1583       C  0.02196746  0.41702300  0.41680235    -0.03200
C1584       C  0.04694446  0.42136611  0.40947291    -0.07600
C1585       C  0.05694103  0.41054130  0.38749977     0.05900
C1586       C  0.04073924  0.39545066  0.37235264    -0.02700
Br1587     Br  0.05028306  0.38134300  0.34040319    -0.02400
H1588       H  0.00429399  0.37844643  0.36844912     0.09800
H1589       H  0.05847407  0.43386393  0.42087295     0.07800
Br1590     Br  0.01074412  0.43430866  0.44648218    -0.02800
C1591       C  0.94058806  0.25056218  0.38020590    -0.09400
C1592       C  0.93193164  0.23389971  0.39875304     0.06800
C1593       C  0.91718426  0.24309506  0.41862126    -0.03200
C1594       C  0.91414471  0.26895880  0.42147234    -0.07600
C1595       C  0.92562495  0.28596774  0.40476718     0.05900
C1596       C  0.93722361  0.27652134  0.38280770    -0.02700
Br1597     Br  0.95178047  0.29768799  0.35738411    -0.02400
H1598       H  0.95182769  0.24352972  0.36475703     0.09800
H1599       H  0.90475300  0.27580343  0.43817637     0.07800
Br1600     Br  0.90499319  0.22170593  0.44511458    -0.02800
C1601       C  0.04384779  0.19490915  0.51205463    -0.09400
C1602       C  0.02866751  0.18814557  0.53266239     0.06800
C1603       C  0.00276132  0.18380920  0.52870914    -0.03200
C1604       C  0.99284632  0.18505447  0.50429822    -0.07600
C1605       C  0.00852321  0.18954610  0.48347694     0.05900
C1606       C  0.03413056  0.19494695  0.48751097    -0.02700
Br1607     Br  0.05681183  0.20110390  0.46016213    -0.02400
H1608       H  0.06385161  0.19805428  0.51471538     0.09800
H1609       H  0.97310092  0.18064099  0.50140347     0.07800
Br1610     Br  0.98028292  0.17483340  0.55554386    -0.02800
C1611       C  0.01866919  0.41860545  0.60260846    -0.09400
C1612       C  0.00065874  0.40165759  0.61221909     0.06800
C1613       C  0.00706400  0.37602124  0.61389455    -0.03200
C1614       C  0.03095124  0.36798656  0.60624680    -0.07600
C1615       C  0.04913697  0.38495609  0.59689898     0.05900
C1616       C  0.04268792  0.41062729  0.59525126    -0.02700
Br1617     Br  0.06616520  0.43612044  0.58500082    -0.02400
H1618       H  0.01450335  0.43850698  0.60190120     0.09800
H1619       H  0.03512436  0.34809330  0.60721911     0.07800
Br1620     Br  0.98381439  0.35084795  0.62547439    -0.02800
C1621       C  0.00797890  0.32414766  0.50274128    -0.09400
C1622       C  0.00933097  0.33191418  0.47758985     0.06800
C1623       C  0.03312515  0.33547386  0.46632281    -0.03200
C1624       C  0.05490888  0.33375367  0.48106036    -0.07600
C1625       C  0.05342535  0.32766982  0.50669212     0.05900
C1626       C  0.02982289  0.32151211  0.51723661    -0.02700
Br1627     Br  0.02570183  0.31247433  0.55205668    -0.02400
H1628       H  0.98980629  0.32104920  0.51141001     0.09800
H1629       H  0.07295082  0.33833669  0.47277739     0.07800
Br1630     Br  0.03711213  0.34557650  0.43179493    -0.02800
C1631       C  0.13357149  0.22947151  0.58667444    -0.09400
C1632       C  0.11883078  0.22413634  0.60780526     0.06800
C1633       C  0.11275400  0.24371073  0.62456955    -0.03200
C1634       C  0.11794267  0.26867117  0.61783844    -0.07600
C1635       C  0.12878448  0.27417903  0.59434436     0.05900
C1636       C  0.13816096  0.25426513  0.57953471    -0.02700
Br1637     Br  0.15479994  0.25938564  0.54786697    -0.02400
H1638       H  0.13876789  0.21452099  0.57385511     0.09800
H1639       H  0.11124361  0.28370891  0.62978968     0.07800
Br1640     Br  0.09608196  0.23720067  0.65591433    -0.02800
C1641       C  0.12916460  0.12364326  0.49068214    -0.09400
C1642       C  0.11845522  0.10209640  0.47945884     0.06800
C1643       C  0.09855336  0.08982351  0.49226366    -0.03200
C1644       C  0.09092141  0.09830582  0.51617703    -0.07600
C1645       C  0.10267555  0.11900337  0.52793338     0.05900
C1646       C  0.12134089  0.13227541  0.51435393    -0.02700
Br1647     Br  0.13541986  0.16364503  0.52589674    -0.02400
H1648       H  0.14415242  0.13371127  0.48120664     0.09800
H1649       H  0.07566688  0.08862816  0.52564552     0.07800
Br1650     Br  0.08020539  0.06212792  0.47780051    -0.02800
C1651       C  0.27391088  0.12038490  0.42132069    -0.09400
C1652       C  0.28960640  0.10560918  0.40614384     0.06800
C1653       C  0.27879323  0.09095955  0.38669345    -0.03200
C1654       C  0.25257720  0.08901046  0.38485886    -0.07600
C1655       C  0.23697378  0.10145173  0.40209903     0.05900
C1656       C  0.24776039  0.11844963  0.41947172    -0.02700
Br1657     Br  0.22822990  0.13597567  0.44422969    -0.02400
H1658       H  0.28200529  0.13193104  0.43616247     0.09800
H1659       H  0.24441089  0.07593581  0.37139294     0.07800
Br1660     Br  0.29837233  0.07003807  0.36482705    -0.02800
C1661       C  0.36222180  0.01352148  0.52909305    -0.09400
C1662       C  0.35793137  0.98996214  0.51775643     0.06800
C1663       C  0.34938373  0.98883791  0.49263472    -0.03200
C1664       C  0.34670057  0.01099290  0.47886249    -0.07600
C1665       C  0.35311910  0.03435581  0.48949448     0.05900
C1666       C  0.36007720  0.03567603  0.51512095    -0.02700
Br1667     Br  0.36673658  0.06704295  0.53194052    -0.02400
H1668       H  0.36840132  0.01465479  0.54855649     0.09800
H1669       H  0.34105372  0.00975634  0.45924392     0.07800
Br1670     Br  0.34137141  0.95771859  0.47602495    -0.02800
C1671       C  0.12928401  0.92897951  0.50918591    -0.09400
C1672       C  0.14909627  0.91804763  0.52296052     0.06800
C1673       C  0.16351353  0.89916105  0.51105645    -0.03200
C1674       C  0.15715993  0.89080945  0.48671364    -0.07600
C1675       C  0.13692846  0.90123666  0.47319019     0.05900
C1676       C  0.12311791  0.92084111  0.48466758    -0.02700
Br1677     Br  0.09458320  0.93638829  0.46877550    -0.02400
H1678       H  0.11834782  0.94389071  0.51761375     0.09800
H1679       H  0.16809043  0.87586285  0.47834211     0.07800
Br1680     Br  0.19328033  0.88507187  0.52605274    -0.02800
C1681       C  0.19504112  0.02806132  0.53040680    -0.09400
C1682       C  0.20519108  0.00376436  0.53037944     0.06800
C1683       C  0.21291068  0.99308473  0.50714447    -0.03200
C1684       C  0.20802640  0.00580678  0.48456707    -0.07600
C1685       C  0.19608403  0.02915778  0.48478747     0.05900
C1686       C  0.19023411  0.04063853  0.50791618    -0.02700
Br1687     Br  0.17216556  0.07176432  0.50985509    -0.02400
H1688       H  0.18892045  0.03656637  0.54788619     0.09800
H1689       H  0.21277238  0.99708899  0.46676835     0.07800
Br1690     Br  0.22793044  0.96041301  0.50417115    -0.02800
C1691       C  0.26322194  0.90158294  0.58710088    -0.09400
C1692       C  0.25591995  0.91913526  0.60536671     0.06800
C1693       C  0.27436029  0.92941429  0.62160477    -0.03200
C1694       C  0.29992311  0.92533585  0.61673041    -0.07600
C1695       C  0.30730384  0.91080949  0.59593669     0.05900
C1696       C  0.28870535  0.89723049  0.58238381    -0.02700
Br1697     Br  0.29687728  0.87341581  0.55644815    -0.02400
H1698       H  0.24921227  0.89283199  0.57499814     0.09800
H1699       H  0.31394066  0.93512265  0.62802223     0.07800
Br1700     Br  0.26544301  0.94944607  0.65024751    -0.02800
C1701       C  0.43413450  0.99809632  0.39768804    -0.09400
C1702       C  0.41928820  0.98476202  0.38010138     0.06800
C1703       C  0.39836206  0.99712084  0.36915427    -0.03200
C1704       C  0.39187176  0.02136994  0.37725460    -0.07600
C1705       C  0.40630324  0.03422911  0.39551388     0.05900
C1706       C  0.42824960  0.02267327  0.40490133    -0.02700
Br1707     Br  0.45211554  0.04018576  0.42589436    -0.02400
H1708       H  0.45120710  0.98977949  0.40513870     0.09800
H1709       H  0.37496626  0.02993271  0.36969731     0.07800
Br1710     Br  0.37757195  0.98221314  0.34337107    -0.02800
C1711       C  0.52087969  0.87735200  0.10632874    -0.09400
C1712       C  0.53844569  0.89221518  0.09316941     0.06800
C1713       C  0.53126526  0.91682965  0.08612643    -0.03200
C1714       C  0.50743475  0.92596077  0.09266320    -0.07600
C1715       C  0.48994932  0.91111529  0.10594283     0.05900
C1716       C  0.49694805  0.88631807  0.11252848    -0.02700
Br1717     Br  0.47514584  0.86317979  0.12987094    -0.02400
H1718       H  0.52554937  0.85824131  0.11151337     0.09800
H1719       H  0.50275701  0.94510369  0.08761105     0.07800
Br1720     Br  0.55242062  0.93911338  0.06707355    -0.02800
C1721       C  0.44432565  0.89971279  0.22913427    -0.09400
C1722       C  0.42477160  0.91563899  0.22143328     0.06800
C1723       C  0.40796101  0.92514711  0.23947607    -0.03200
C1724       C  0.41285582  0.92142284  0.26505874    -0.07600
C1725       C  0.43455479  0.90862124  0.27279757     0.05900
C1726       C  0.44944590  0.89631008  0.25474911    -0.02700
Br1727     Br  0.47780507  0.87603364  0.26415833    -0.02400
H1728       H  0.45708889  0.89188435  0.21537168     0.09800
H1729       H  0.40096213  0.93050530  0.27884263     0.07800
Br1730     Br  0.37914721  0.94481058  0.23016143    -0.02800
C1731       C  0.51177328  0.00395894  0.32364456    -0.09400
C1732       C  0.50862615  0.99085294  0.34646763     0.06800
C1733       C  0.51481973  0.00327891  0.36931224    -0.03200
C1734       C  0.52367076  0.02797638  0.36884320    -0.07600
C1735       C  0.52737196  0.04087354  0.34609094     0.05900
C1736       C  0.52103404  0.02866417  0.32322762    -0.02700
Br1737     Br  0.52381670  0.04457702  0.29083656    -0.02400
H1738       H  0.50672615  0.99508167  0.30592862     0.09800
H1739       H  0.52879699  0.03675517  0.38662271     0.07800
Br1740     Br  0.51248382  0.98823550  0.40218252    -0.02800
C1741       C  0.51905706  0.13312953  0.10777291    -0.09400
C1742       C  0.50155557  0.11614286  0.09713447     0.06800
C1743       C  0.50861916  0.09069131  0.09480896    -0.03200
C1744       C  0.53276583  0.08300831  0.10235482    -0.07600
C1745       C  0.55027980  0.09999326  0.11307140     0.05900
C1746       C  0.54297607  0.12538313  0.11587772    -0.02700
Br1747     Br  0.56444567  0.15078811  0.13042325    -0.02400
H1748       H  0.51429147  0.15282756  0.10948903     0.09800
H1749       H  0.53741673  0.06327407  0.10080377     0.07800
Br1750     Br  0.48560009  0.06502369  0.08359865    -0.02800
C1751       C  0.50088956  0.01938444  0.17308949    -0.09400
C1752       C  0.49988300  0.99338211  0.16924645     0.06800
C1753       C  0.52248044  0.97958597  0.16782701    -0.03200
C1754       C  0.54561656  0.99212398  0.16899195    -0.07600
C1755       C  0.54666519  0.01822251  0.17219131     0.05900
C1756       C  0.52405251  0.03186026  0.17494233    -0.02700
Br1757     Br  0.52335113  0.06782735  0.17848823    -0.02400
H1758       H  0.48362300  0.03007705  0.17407085     0.09800
H1759       H  0.56282458  0.98156886  0.16658810     0.07800
Br1760     Br  0.52299463  0.94397790  0.16165617    -0.02800
C1761       C  0.63696859  0.08721540  0.24662974    -0.09400
C1762       C  0.62213302  0.09918803  0.22829757     0.06800
C1763       C  0.60522259  0.11810142  0.23580757    -0.03200
C1764       C  0.60127742  0.12245109  0.26146301    -0.07600
C1765       C  0.61434916  0.10866475  0.27982152     0.05900
C1766       C  0.63347688  0.09204964  0.27227602    -0.02700
Br1767     Br  0.65281558  0.07267371  0.29591638    -0.02400
H1768       H  0.65016537  0.07278903  0.24105654     0.09800
H1769       H  0.58668132  0.13540083  0.26709695     0.07800
Br1770     Br  0.58424378  0.13596009  0.21236224    -0.02800
C1771       C  0.51515505  0.08379610  0.88504101    -0.09400
C1772       C  0.49604335  0.09981625  0.87604199     0.06800
C1773       C  0.50204694  0.12554200  0.87276447    -0.03200
C1774       C  0.52631357  0.13448310  0.87856463    -0.07600
C1775       C  0.54544681  0.11846413  0.88752221     0.05900
C1776       C  0.53956596  0.09266719  0.89044333    -0.02700
Br1777     Br  0.56362886  0.06821491  0.90162162    -0.02400
H1778       H  0.51138332  0.06386975  0.88717027     0.09800
H1779       H  0.53007816  0.15436536  0.87632158     0.07800
Br1780     Br  0.47820793  0.14992870  0.86093082    -0.02800
C1781       C  0.42939938  0.01952283  0.62132772    -0.09400
C1782       C  0.44652878  0.03266627  0.60612498     0.06800
C1783       C  0.45618914  0.02044570  0.58462710    -0.03200
C1784       C  0.44747903  0.99620443  0.57811411    -0.07600
C1785       C  0.43007608  0.98312892  0.59336287     0.05900
C1786       C  0.42173996  0.99497053  0.61569512    -0.02700
Br1787     Br  0.39936486  0.97948052  0.63953112    -0.02400
H1788       H  0.42244629  0.02814179  0.63845185     0.09800
H1789       H  0.45411132  0.98769417  0.56082323     0.07800
Br1790     Br  0.48043514  0.03623279  0.56301725    -0.02800
C1791       C  0.41559032  0.09058744  0.72029311    -0.09400
C1792       C  0.43314199  0.10969710  0.71521698     0.06800
C1793       C  0.44207523  0.12476250  0.73523792    -0.03200
C1794       C  0.43689369  0.11786031  0.76013949    -0.07600
C1795       C  0.42260539  0.09617599  0.76526566     0.05900
C1796       C  0.41030336  0.08369988  0.74515146    -0.02700
Br1797     Br  0.38731789  0.05623307  0.75045987    -0.02400
H1798       H  0.40795412  0.07926323  0.70503377     0.09800
H1799       H  0.44576135  0.12824220  0.77538161     0.07800
Br1800     Br  0.46255572  0.15400169  0.72935613    -0.02800
C1801       C  0.51902606  0.98841391  0.67858654    -0.09400
C1802       C  0.54527334  0.98821950  0.68042880     0.06800
C1803       C  0.55863278  0.01124986  0.68191131    -0.03200
C1804       C  0.54564823  0.03391048  0.67955421    -0.07600
C1805       C  0.51944562  0.03403428  0.67661528     0.05900
C1806       C  0.50599408  0.01103926  0.67709477    -0.02700
Br1807     Br  0.47012759  0.00881553  0.67290051    -0.02400
H1808       H  0.50867322  0.97083718  0.67730843     0.09800
H1809       H  0.55611227  0.05143964  0.67915402     0.07800
Br1810     Br  0.59471028  0.01316376  0.68432698    -0.02800
C1811       C  0.53022021  0.88616668  0.88831731    -0.09400
C1812       C  0.54043907  0.90774300  0.89988214     0.06800
C1813       C  0.52486424  0.92173633  0.91621821    -0.03200
C1814       C  0.49972772  0.91438194  0.91995730    -0.07600
C1815       C  0.48927711  0.89316153  0.90779593     0.05900
C1816       C  0.50515618  0.87880976  0.89199196    -0.02700
Br1817     Br  0.49446384  0.84901381  0.87428607    -0.02400
H1818       H  0.54156654  0.87524594  0.87545470     0.09800
H1819       H  0.48839514  0.92521894  0.93290603     0.07800
Br1820     Br  0.53655165  0.95075159  0.93454978    -0.02800
C1821       C  0.54169068  0.00898732  0.82875690    -0.09400
C1822       C  0.54067238  0.98276099  0.83127989     0.06800
C1823       C  0.51699200  0.97039608  0.82961219    -0.03200
C1824       C  0.49496655  0.98452262  0.82743326    -0.07600
C1825       C  0.49606015  0.01073007  0.82585949     0.05900
C1826       C  0.51968213  0.02295483  0.82562441    -0.02700
Br1827     Br  0.52290780  0.05887129  0.82342954    -0.02400
H1828       H  0.55962150  0.01873527  0.82987888     0.09800
H1829       H  0.47685465  0.97505786  0.82763636     0.07800
Br1830     Br  0.51278043  0.93458296  0.83249103    -0.02800
C1831       C  0.60285266  0.88957177  0.77752711    -0.09400
C1832       C  0.62158707  0.90536139  0.78753002     0.06800
C1833       C  0.63949179  0.91618568  0.77130085    -0.03200
C1834       C  0.63632739  0.91405336  0.74522634    -0.07600
C1835       C  0.61515488  0.90166050  0.73516931     0.05900
C1836       C  0.59928189  0.88789011  0.75146170    -0.02700
Br1837     Br  0.57111786  0.86836632  0.73945641    -0.02400
H1838       H  0.58919727  0.88086059  0.78989833     0.09800
H1839       H  0.64900829  0.92427833  0.73296132     0.07800
Br1840     Br  0.66717596  0.93594770  0.78389487    -0.02800
C1841       C  0.61963990  0.00036800  0.42137095    -0.09400
C1842       C  0.63172767  0.98357581  0.40499387     0.06800
C1843       C  0.63602842  0.99125327  0.37995757    -0.03200
C1844       C  0.62859899  0.01533926  0.37194700    -0.07600
C1845       C  0.61701763  0.03258015  0.38851213     0.05900
C1846       C  0.61240958  0.02452489  0.41354442    -0.02700
Br1847     Br  0.59684036  0.04531262  0.43855550    -0.02400
H1848       H  0.61659455  0.99501100  0.44083741     0.09800
H1849       H  0.63181589  0.02049676  0.35246901     0.07800
Br1850     Br  0.65107611  0.96916899  0.35570976    -0.02800
C1851       C  0.89174224  0.90212155  0.48367899    -0.09400
C1852       C  0.90648654  0.91875319  0.46920506     0.06800
C1853       C  0.92874315  0.92873363  0.48020252    -0.03200
C1854       C  0.93585119  0.92164260  0.50465766    -0.07600
C1855       C  0.92137490  0.90463071  0.51884622     0.05900
C1856       C  0.89886290  0.89509974  0.50814595    -0.02700
Br1857     Br  0.87628264  0.87338037  0.52620023    -0.02400
H1858       H  0.87420659  0.89476157  0.47611555     0.09800
H1859       H  0.95331572  0.92902639  0.51235554     0.07800
Br1860     Br  0.95030086  0.95257661  0.46361458    -0.02800
C1861       C  0.77670388  0.93588690  0.38974436    -0.09400
C1862       C  0.79571577  0.92497926  0.40442470     0.06800
C1863       C  0.78915137  0.90899358  0.42456330    -0.03200
C1864       C  0.76377720  0.90531374  0.43047408    -0.07600
C1865       C  0.74479020  0.91741883  0.41664992     0.05900
C1866       C  0.75137570  0.93232753  0.39572276    -0.02700
Br1867     Br  0.72709938  0.95175245  0.37730474    -0.02400
H1868       H  0.78163358  0.94867662  0.37466588     0.09800
H1869       H  0.75891224  0.89415000  0.44684605     0.07800
Br1870     Br  0.81388023  0.89501308  0.44703076    -0.02800
C1871       C  0.94109852  0.09810980  0.51818697    -0.09400
C1872       C  0.91876319  0.10868019  0.52766561     0.06800
C1873       C  0.90671016  0.12729082  0.51281768    -0.03200
C1874       C  0.91648600  0.13411863  0.48923527    -0.07600
C1875       C  0.93852384  0.12328772  0.47953715     0.05900
C1876       C  0.95112059  0.10532711  0.49469658    -0.02700
Br1877     Br  0.98163558  0.08918562  0.48440645    -0.02400
H1878       H  0.95068461  0.08366281  0.52888862     0.09800
H1879       H  0.90683291  0.14853012  0.47853662     0.07800
Br1880     Br  0.87675703  0.14459613  0.52305337    -0.02800
C1881       C  0.89055564  0.00225781  0.48369078    -0.09400
C1882       C  0.86913168  0.00589152  0.46858249     0.06800
C1883       C  0.84787392  0.01761067  0.47899453    -0.03200
C1884       C  0.84853925  0.02554108  0.50410908    -0.07600
C1885       C  0.87000426  0.02178018  0.51935124     0.05900
C1886       C  0.89114467  0.00970253  0.50883151    -0.02700
Br1887     Br  0.92149255  0.00198357  0.52713589    -0.02400
H1888       H  0.90676562  0.99255126  0.47621508     0.09800
H1889       H  0.83224253  0.03512905  0.51156826     0.07800
Br1890     Br  0.81777462  0.02406401  0.45984876    -0.02800
C1891       C  0.65219584  0.02471797  0.62279056    -0.09400
C1892       C  0.63421752  0.04017247  0.61095933     0.06800
C1893       C  0.61010038  0.02979976  0.60593662    -0.03200
C1894       C  0.60477472  0.00472316  0.61249250    -0.07600
C1895       C  0.62308605  0.98911460  0.62366126     0.05900
C1896       C  0.64709291  0.99952731  0.62868559    -0.02700
Br1897     Br  0.67462245  0.98007641  0.64157045    -0.02400
H1898       H  0.67105123  0.03181320  0.62629824     0.09800
H1899       H  0.58596845  0.99750399  0.60907821     0.07800
Br1900     Br  0.58338179  0.04852805  0.59040443    -0.02800
C1901       C  0.69494235  0.02337502  0.51381110    -0.09400
C1902       C  0.67178983  0.03432488  0.52008184     0.06800
C1903       C  0.64944024  0.02029229  0.51614261    -0.03200
C1904       C  0.65065640  0.99632006  0.50548902    -0.07600
C1905       C  0.67374738  0.98558955  0.49857543     0.05900
C1906       C  0.69618226  0.99933539  0.50323098    -0.02700
Br1907     Br  0.72929264  0.98691634  0.49592642    -0.02400
H1908       H  0.71235257  0.03355104  0.51726898     0.09800
H1909       H  0.63317909  0.98618825  0.50218856     0.07800
Br1910     Br  0.61658105  0.03177420  0.52570769    -0.02800
C1911       C  0.75817517  0.08974478  0.60828804    -0.09400
C1912       C  0.74979590  0.10407204  0.58768035     0.06800
C1913       C  0.76770141  0.11539744  0.57166223    -0.03200
C1914       C  0.79333346  0.11119933  0.57567542    -0.07600
C1915       C  0.80147974  0.09503497  0.59481276     0.05900
C1916       C  0.78381601  0.08475283  0.61165687    -0.02700
Br1917     Br  0.79372705  0.06308680  0.63884653    -0.02400
H1918       H  0.74466616  0.08095815  0.62077101     0.09800
H1919       H  0.80683401  0.11908648  0.56258940     0.07800
Br1920     Br  0.75843443  0.13595537  0.54340645    -0.02800
C1921       C  0.06325148  0.89557245  0.29953568    -0.09400
C1922       C  0.04362027  0.87941501  0.29173129     0.06800
C1923       C  0.03444035  0.86151172  0.30901136    -0.03200
C1924       C  0.04573981  0.85917756  0.33284405    -0.07600
C1925       C  0.06596382  0.87478442  0.34031551     0.05900
C1926       C  0.07429792  0.89349316  0.32349441    -0.02700
Br1927     Br  0.09939581  0.91785433  0.33273220    -0.02400
H1928       H  0.07021230  0.90995393  0.28693485     0.09800
H1929       H  0.03853472  0.84506504  0.34567086     0.07800
Br1930     Br  0.00520628  0.84130717  0.30208494    -0.02800
C1931       C  0.11115870  0.94342178  0.24192202    -0.09400
C1932       C  0.10345904  0.96815974  0.23670760     0.06800
C1933       C  0.07889210  0.97211336  0.22732452    -0.03200
C1934       C  0.06238688  0.95179829  0.22433599    -0.07600
C1935       C  0.06953912  0.92750376  0.23107872     0.05900
C1936       C  0.09441944  0.92312080  0.23910740    -0.02700
Br1937     Br  0.10630159  0.88986072  0.24622989    -0.02400
H1938       H  0.13027285  0.93991478  0.24814499     0.09800
H1939       H  0.04362067  0.95500824  0.21692185     0.07800
Br1940     Br  0.06677854  0.00430794  0.21704779    -0.02800
C1941       C  0.16244085  0.04372850  0.30176383    -0.09400
C1942       C  0.14903274  0.02168498  0.29562278     0.06800
C1943       C  0.13643752  0.00871592  0.31507824    -0.03200
C1944       C  0.13714573  0.01797359  0.33992598    -0.07600
C1945       C  0.14968272  0.04058612  0.34578791     0.05900
C1946       C  0.16271243  0.05329361  0.32638425    -0.02700
Br1947     Br  0.18236516  0.08318237  0.33241315    -0.02400
H1948       H  0.17208535  0.05412393  0.28712793     0.09800
H1949       H  0.12757282  0.00763131  0.35465970     0.07800
Br1950     Br  0.11837202  0.97811423  0.30875299    -0.02800
C1951       C  0.09273004  0.06305895  0.21196686    -0.09400
C1952       C  0.10144605  0.05495496  0.23568372     0.06800
C1953       C  0.09025633  0.06556980  0.25747870    -0.03200
C1954       C  0.07100083  0.08328066  0.25510723    -0.07600
C1955       C  0.06233136  0.09111540  0.23149036     0.05900
C1956       C  0.07328177  0.08062877  0.20967445    -0.02700
Br1957     Br  0.06118655  0.08759028  0.17624583    -0.02400
H1958       H  0.10039071  0.05486092  0.19494216     0.09800
H1959       H  0.06297188  0.09140864  0.27199482     0.07800
Br1960     Br  0.10066477  0.05891476  0.29133948    -0.02800
C1961       C  0.02145582  0.15426561  0.30252395    -0.09400
C1962       C  0.00977213  0.13476641  0.28875958     0.06800
C1963       C  0.99310219  0.11859640  0.30216219    -0.03200
C1964       C  0.98789404  0.12292331  0.32780281    -0.07600
C1965       C  0.99896279  0.14292292  0.34123665     0.05900
C1966       C  0.01638707  0.15843105  0.32820757    -0.02700
Br1967     Br  0.03321409  0.18667522  0.34348528    -0.02400
H1968       H  0.03460618  0.16670049  0.29313068     0.09800
H1969       H  0.97455209  0.11071300  0.33722544     0.07800
Br1970     Br  0.97485859  0.09111711  0.28737718    -0.02800
C1971       C  0.93476891  0.07334920  0.22953400    -0.09400
C1972       C  0.94253469  0.04877986  0.22383153     0.06800
C1973       C  0.96758869  0.04488141  0.21609172    -0.03200
C1974       C  0.98494235  0.06474356  0.21680234    -0.07600
C1975       C  0.97733413  0.08905967  0.22322309     0.05900
C1976       C  0.95184343  0.09353299  0.22875318    -0.02700
Br1977     Br  0.94002521  0.12658646  0.23699905    -0.02400
H1978       H  0.91533796  0.07683439  0.23454137     0.09800
H1979       H  0.00437286  0.06135810  0.21164195     0.07800
Br1980     Br  0.97844363  0.01408195  0.20109039    -0.02800
C1981       C  0.96684740  0.96862575  0.24163499    -0.09400
C1982       C  0.94370146  0.96151064  0.23072468     0.06800
C1983       C  0.93967595  0.93548960  0.22651774    -0.03200
C1984       C  0.95900161  0.91831104  0.23150294    -0.07600
C1985       C  0.98328253  0.92587006  0.23961468     0.05900
C1986       C  0.98639037  0.95168369  0.24605003    -0.02700
Br1987     Br  0.01547966  0.96738324  0.26099765    -0.02400
H1988       H  0.97059291  0.98805075  0.24625004     0.09800
H1989       H  0.95474858  0.89858650  0.22866682     0.07800
Br1990     Br  0.90855692  0.92077902  0.21510889    -0.02800
C1991       C  0.88171692  0.96427255  0.31088090    -0.09400
C1992       C  0.89025202  0.97974974  0.33055291     0.06800
C1993       C  0.90071291  0.00349665  0.32468633    -0.03200
C1994       C  0.90243858  0.01123039  0.29947145    -0.07600
C1995       C  0.89296889  0.99613383  0.27985524     0.05900
C1996       C  0.88261468  0.97232371  0.28581695    -0.02700
Br1997     Br  0.86966436  0.94949645  0.26088480    -0.02400
H1998       H  0.87343805  0.94609681  0.31509642     0.09800
H1999       H  0.91106061  0.02922120  0.29515063     0.07800
Br2000     Br  0.91363608  0.02578447  0.35019449    -0.02800
C2001       C  0.17032859  0.34126305  0.98379468    -0.09400
C2002       C  0.15306280  0.34961423  0.96528605     0.06800
C2003       C  0.13279925  0.33347795  0.95891616    -0.03200
C2004       C  0.13105231  0.30947081  0.96982894    -0.07600
C2005       C  0.14975544  0.30014424  0.98626101     0.05900
C2006       C  0.16867167  0.31703938  0.99434354    -0.02700
Br2007     Br  0.19070171  0.30913443  0.02194994    -0.02400
H2008       H  0.18535618  0.35358306  0.99013266     0.09800
H2009       H  0.11483954  0.29819530  0.96523653     0.07800
Br2010     Br  0.10646143  0.34291735  0.93588715    -0.02800
C2011       C  0.04359286  0.19945247  0.17076219    -0.09400
C2012       C  0.02109565  0.20677720  0.15865115     0.06800
C2013       C  0.99833095  0.20039156  0.17120775    -0.03200
C2014       C  0.99826777  0.18205021  0.19029854    -0.07600
C2015       C  0.02074084  0.17140247  0.19946026     0.05900
C2016       C  0.04348499  0.18316115  0.19169569    -0.02700
Br2017     Br  0.07394215  0.18191596  0.21143864    -0.02400
H2018       H  0.06138256  0.20733678  0.16472445     0.09800
H2019       H  0.98042925  0.17643115  0.19837203     0.07800
Br2020     Br  0.96714049  0.21790227  0.16600799    -0.02800
C2021       C  0.09154183  0.23893025  0.08654631    -0.09400
C2022       C  0.06642591  0.23758882  0.07805241     0.06800
C2023       C  0.06185948  0.23909972  0.05178698    -0.03200
C2024       C  0.08184271  0.24178261  0.03495394    -0.07600
C2025       C  0.10687918  0.24309923  0.04328436     0.05900
C2026       C  0.11163887  0.24190048  0.06958012    -0.02700
Br2027     Br  0.14468907  0.24625770  0.08381506    -0.02400
H2028       H  0.09552121  0.23849801  0.10660624     0.09800
H2029       H  0.07765486  0.24215199  0.01494828     0.07800
Br2030     Br  0.02920072  0.23600453  0.03672173    -0.02800
C2031       C  0.02552811  0.33751005  0.13761129    -0.09400
C2032       C  0.05031410  0.34408947  0.13054471     0.06800
C2033       C  0.06564577  0.32524897  0.11980355    -0.03200
C2034       C  0.05613801  0.30083323  0.11654863    -0.07600
C2035       C  0.03170515  0.29437056  0.12415457     0.05900
C2036       C  0.01624642  0.31297264  0.13456740    -0.02700
Br2037     Br  0.98220150  0.30588528  0.14426457    -0.02400
H2038       H  0.01324185  0.35145085  0.14586336     0.09800
H2039       H  0.06822181  0.28656192  0.10864408     0.07800
Br2040     Br  0.10000964  0.33070750  0.11007502    -0.02800
C2041       C  0.95369417  0.21888820  0.04422160    -0.09400
C2042       C  0.93906723  0.24070644  0.04235483     0.06800
C2043       C  0.94366827  0.26057074  0.05944805    -0.03200
C2044       C  0.96405351  0.25934657  0.07630765    -0.07600
C2045       C  0.97886949  0.23767254  0.07792906     0.05900
C2046       C  0.97296077  0.21695346  0.06228253    -0.02700
Br2047     Br  0.99091636  0.18580149  0.06441516    -0.02400
H2048       H  0.95000247  0.20320817  0.03164081     0.09800
H2049       H  0.96759131  0.27489157  0.08911481     0.07800
Br2050     Br  0.92056697  0.28775849  0.06342713    -0.02800
C2051       C  0.86586782  0.31267631  0.00241772    -0.09400
C2052       C  0.89063115  0.30304886  0.00424193     0.06800
C2053       C  0.90998425  0.32110404  0.01038785    -0.03200
C2054       C  0.90357106  0.34528429  0.01879462    -0.07600
C2055       C  0.87870736  0.35352325  0.01901132     0.05900
C2056       C  0.85986117  0.33729943  0.00957061    -0.02700
Br2057     Br  0.82506556  0.34686084  0.00766254    -0.02400
H2058       H  0.85052136  0.30118871  0.99550363     0.09800
H2059       H  0.91836437  0.35822068  0.02459690     0.07800
Br2060     Br  0.94574991  0.31769188  0.00634919    -0.02800
C2061       C  0.10604465  0.25642878  0.93838437    -0.09400
C2062       C  0.10521156  0.23794123  0.95726260     0.06800
C2063       C  0.08582650  0.21989261  0.95670137    -0.03200
C2064       C  0.06705665  0.22126937  0.93809142    -0.07600
C2065       C  0.06637424  0.24154294  0.92110541     0.05900
C2066       C  0.08639544  0.25880697  0.92086626    -0.02700
Br2067     Br  0.08791714  0.28509132  0.89618458    -0.02400
H2068       H  0.12207853  0.26893273  0.93713428     0.09800
H2069       H  0.05247089  0.20703059  0.93742171     0.07800
Br2070     Br  0.08411445  0.19351690  0.98126862    -0.02800
C2071       C  0.96455819  0.24306674  0.96656898    -0.09400
C2072       C  0.93974274  0.24384537  0.95768330     0.06800
C2073       C  0.93522709  0.24279802  0.93145599    -0.03200
C2074       C  0.95534608  0.23969056  0.91487027    -0.07600
C2075       C  0.98025527  0.23885103  0.92375827     0.05900
C2076       C  0.98472100  0.24102140  0.94998978    -0.02700
Br2077     Br  0.01734048  0.24063206  0.96526555    -0.02400
H2078       H  0.96835682  0.24367166  0.98665452     0.09800
H2079       H  0.95157306  0.23910278  0.89478807     0.07800
Br2080     Br  0.90253038  0.24820694  0.91696169    -0.02800
C2081       C  0.01998117  0.31772237  0.88987716    -0.09400
C2082       C  0.00708656  0.29798273  0.87771777     0.06800
C2083       C  0.98361485  0.30336633  0.86614141    -0.03200
C2084       C  0.97408009  0.32798257  0.86632718    -0.07600
C2085       C  0.98743874  0.34794512  0.87766228     0.05900
C2086       C  0.01068870  0.34246947  0.88960613    -0.02700
Br2087     Br  0.03047745  0.36771678  0.90652807    -0.02400
H2088       H  0.03758306  0.31393941  0.89947102     0.09800
H2089       H  0.95626928  0.33160702  0.85701442     0.07800
Br2090     Br  0.96283108  0.27788007  0.85079103    -0.02800
C2091       C  0.22796349  0.19463981  0.01141287    -0.09400
C2092       C  0.22121904  0.16904296  0.00845433     0.06800
C2093       C  0.19530698  0.16388062  0.00425598    -0.03200
C2094       C  0.17795662  0.18353858  0.00097328    -0.07600
C2095       C  0.18495715  0.20923578  0.00222537     0.05900
C2096       C  0.21041199  0.21432996  0.00909115    -0.02700
Br2097     Br  0.22301980  0.24668104  0.01923245    -0.02400
H2098       H  0.24684351  0.19996811  0.01669532     0.09800
H2099       H  0.15838822  0.17850464  0.99795945     0.07800
Br2100     Br  0.18179186  0.13023346  0.00350317    -0.02800
C2101       C  0.34608028  0.15096748  0.04799890    -0.09400
C2102       C  0.36419566  0.13826470  0.03369615     0.06800
C2103       C  0.35638139  0.12593083  0.01132258    -0.03200
C2104       C  0.33088888  0.12597396  0.00412978    -0.07600
C2105       C  0.31279526  0.13865445  0.01846150     0.05900
C2106       C  0.32072750  0.15148686  0.04057252    -0.02700
Br2107     Br  0.29759591  0.16712587  0.06345992    -0.02400
H2108       H  0.35167442  0.16069251  0.06511517     0.09800
H2109       H  0.32508908  0.11576417  0.98736474     0.07800
Br2110     Br  0.37928803  0.10762082  0.99041587    -0.02800
C2111       C  0.22255173  0.99964403  0.18822366    -0.09400
C2112       C  0.21572651  0.00498356  0.16301837     0.06800
C2113       C  0.18994034  0.01022403  0.15850048    -0.03200
C2114       C  0.17319696  0.01341932  0.17861738    -0.07600
C2115       C  0.18051211  0.01021388  0.20402415     0.05900
C2116       C  0.20534397  0.00117145  0.20825781    -0.02700
Br2117     Br  0.21691290  0.98625530  0.23917899    -0.02400
H2118       H  0.24095041  0.99243221  0.19269661     0.09800
H2119       H  0.15370199  0.01749730  0.17415077     0.07800
Br2120     Br  0.17530093  0.01150327  0.12539484    -0.02800
C2121       C  0.23119801  0.07420713  0.05363041    -0.09400
C2122       C  0.25349287  0.08829042  0.05091398     0.06800
C2123       C  0.27497405  0.08061207  0.06487665    -0.03200
C2124       C  0.27343983  0.06058138  0.08191437    -0.07600
C2125       C  0.25118485  0.04688762  0.08477872     0.05900
C2126       C  0.23023032  0.05316108  0.06960807    -0.02700
Br2127     Br  0.20128810  0.03167634  0.06734603    -0.02400
H2128       H  0.21491505  0.07868922  0.04211912     0.09800
H2129       H  0.28983436  0.05563700  0.09307821     0.07800
Br2130     Br  0.30724695  0.09607533  0.06242001    -0.02800
C2131       C  0.32567583  0.00665710  0.11952681    -0.09400
C2132       C  0.30675301  0.99365411  0.13264562     0.06800
C2133       C  0.31339268  0.97156672  0.14598581    -0.03200
C2134       C  0.33844088  0.96339396  0.14634804    -0.07600
C2135       C  0.35741553  0.97660030  0.13353468     0.05900
C2136       C  0.35077008  0.99837340  0.11989334    -0.02700
Br2137     Br  0.37474528  0.01621251  0.09966800    -0.02400
H2138       H  0.32081984  0.02305932  0.10847278     0.09800
H2139       H  0.34310013  0.94644976  0.15667785     0.07800
Br2140     Br  0.28882593  0.94972844  0.16121234    -0.02800
C2141       C  0.25282025  0.04890184  0.94829946    -0.09400
C2142       C  0.24838523  0.05727763  0.92359601     0.06800
C2143       C  0.24824752  0.08347652  0.91921814    -0.03200
C2144       C  0.25139993  0.10030691  0.93947964    -0.07600
C2145       C  0.25493201  0.09183438  0.96447726     0.05900
C2146       C  0.25571996  0.06555036  0.96854064    -0.02700
Br2147     Br  0.25917933  0.04996070  0.00086377    -0.02400
H2148       H  0.25421794  0.02900448  0.95208481     0.09800
H2149       H  0.25148693  0.12027468  0.93553393     0.07800
Br2150     Br  0.24707872  0.09756037  0.88591054    -0.02800
C2151       C  0.31935257  0.01104200  0.85349334    -0.09400
C2152       C  0.30719917  0.02270197  0.87389935     0.06800
C2153       C  0.32169232  0.03957393  0.88893736    -0.03200
C2154       C  0.34680068  0.04504311  0.88277277    -0.07600
C2155       C  0.35852470  0.03422936  0.86181197     0.05900
C2156       C  0.34447536  0.01663675  0.84726674    -0.02700
Br2157     Br  0.35727886  0.00100139  0.81732604    -0.02400
H2158       H  0.30892217  0.99793505  0.84170528     0.09800
H2159       H  0.35713582  0.05849626  0.89427297     0.07800
Br2160     Br  0.30897747  0.05800469  0.91698050    -0.02800
C2161       C  0.26557439  0.93289331  0.05270953    -0.09400
C2162       C  0.24236670  0.92951027  0.04067535     0.06800
C2163       C  0.22137064  0.94307694  0.04929223    -0.03200
C2164       C  0.22362635  0.95880540  0.07033117    -0.07600
C2165       C  0.24683081  0.96216931  0.08262562     0.05900
C2166       C  0.26807871  0.94913497  0.07332316    -0.02700
Br2167     Br  0.30102840  0.95134610  0.08771324    -0.02400
H2168       H  0.28185714  0.92265827  0.04610460     0.09800
H2169       H  0.20734898  0.96932644  0.07647169     0.07800
Br2170     Br  0.18995105  0.94320948  0.03158438    -0.02800
C2171       C  0.22682271  0.95603334  0.95781894    -0.09400
C2172       C  0.23814308  0.93271346  0.95362587     0.06800
C2173       C  0.25178836  0.92879444  0.93129795    -0.03200
C2174       C  0.25552409  0.94870236  0.91442759    -0.07600
C2175       C  0.24479587  0.97231306  0.91888411     0.05900
C2176       C  0.22910660  0.97541876  0.94011241    -0.02700
Br2177     Br  0.20798312  0.00420012  0.94448040    -0.02400
H2178       H  0.21566792  0.95893080  0.97460502     0.09800
H2179       H  0.26637809  0.94560387  0.89748666     0.07800
Br2180     Br  0.26505018  0.89642058  0.92278505    -0.02800
C2181       C  0.30864186  0.90527245  0.96966261    -0.09400
C2182       C  0.29829810  0.88781896  0.98679500     0.06800
C2183       C  0.31436110  0.86938915  0.99706734    -0.03200
C2184       C  0.33920973  0.86736887  0.98859993    -0.07600
C2185       C  0.34887102  0.88349205  0.96994827     0.05900
C2186       C  0.33350861  0.90313367  0.96103098    -0.02700
Br2187     Br  0.34561339  0.92805135  0.93782886    -0.02400
H2188       H  0.29717882  0.92031660  0.96228811     0.09800
H2189       H  0.35089825  0.85262708  0.99634420     0.07800
Br2190     Br  0.30421596  0.84745618  0.02390106    -0.02800
C2191       C  0.89896340  0.00929781  0.69470076    -0.09400
C2192       C  0.88516293  0.02256809  0.71284679     0.06800
C2193       C  0.87178157  0.04421720  0.70526071    -0.03200
C2194       C  0.87329484  0.05264513  0.68027649    -0.07600
C2195       C  0.88750093  0.03966965  0.66222278     0.05900
C2196       C  0.89987647  0.01737852  0.66951983    -0.02700
Br2197     Br  0.91958534  0.99808960  0.64635684    -0.02400
H2198       H  0.90958378  0.99286494  0.70029675     0.09800
H2199       H  0.86335531  0.06958350  0.67494776     0.07800
Br2200     Br  0.85406552  0.06512576  0.72875444    -0.02800
C2201       C  0.99966236  0.20413519  0.83045462    -0.09400
C2202       C  0.02267759  0.21049378  0.84220719     0.06800
C2203       C  0.04491982  0.20085891  0.83094976    -0.03200
C2204       C  0.04326337  0.18111806  0.81355309    -0.07600
C2205       C  0.01995361  0.17155876  0.80521499     0.05900
C2206       C  0.99828841  0.18576809  0.81141453    -0.02700
Br2207     Br  0.96710617  0.18344628  0.79296276    -0.02400
H2208       H  0.98259020  0.21367963  0.83598259     0.09800
H2209       H  0.06057805  0.17385248  0.80579979     0.07800
Br2210     Br  0.07794641  0.21567784  0.83427055    -0.02800
C2211       C  0.94343395  0.06378132  0.79726934    -0.09400
C2212       C  0.93233863  0.05807162  0.77378820     0.06800
C2213       C  0.94153865  0.07071570  0.75216513    -0.03200
C2214       C  0.96185781  0.08735228  0.75413321    -0.07600
C2215       C  0.97324294  0.09246765  0.77733947     0.05900
C2216       C  0.96361091  0.08085860  0.79922681    -0.02700
Br2217     Br  0.97837951  0.08603981  0.83194076    -0.02400
H2218       H  0.93704481  0.05418695  0.81408376     0.09800
H2219       H  0.96865575  0.09672555  0.73732810     0.07800
Br2220     Br  0.92709301  0.06796205  0.71928450    -0.02800
C2221       C  0.04954970  0.12076184  0.71086880    -0.09400
C2222       C  0.02725195  0.13263648  0.71835612     0.06800
C2223       C  0.01293719  0.14537307  0.70013412    -0.03200
C2224       C  0.02157503  0.14707141  0.67522256    -0.07600
C2225       C  0.04454631  0.13611465  0.66774745     0.05900
C2226       C  0.05834971  0.12239273  0.68601185    -0.02700
Br2227     Br  0.08941464  0.10552305  0.67890226    -0.02400
H2228       H  0.06057709  0.11055711  0.72458834     0.09800
H2229       H  0.01032288  0.15742155  0.66173045     0.07800
Br2230     Br  0.98097103  0.15978448  0.70830292    -0.02800
C2231       C  0.18983599  0.02092715  0.84708765    -0.09400
C2232       C  0.21528761  0.01613958  0.84130809     0.06800
C2233       C  0.22013244  0.00648932  0.81673017    -0.03200
C2234       C  0.20086213  0.00541878  0.79843882    -0.07600
C2235       C  0.17573614  0.01198775  0.80381439     0.05900
C2236       C  0.17041970  0.01877217  0.82909525    -0.02700
Br2237     Br  0.13681305  0.02465425  0.84100941    -0.02400
H2238       H  0.18468697  0.02576339  0.86619736     0.09800
H2239       H  0.20592950  0.99807933  0.78033717     0.07800
Br2240     Br  0.25103274  0.99084129  0.80649612    -0.02800
C2241       C  0.08530688  0.09824987  0.76858949    -0.09400
C2242       C  0.06153669  0.08992067  0.77662490     0.06800
C2243       C  0.05742630  0.06400724  0.78015823    -0.03200
C2244       C  0.07676330  0.04693021  0.77542641    -0.07600
C2245       C  0.10043685  0.05513777  0.76708368     0.05900
C2246       C  0.10459044  0.08109581  0.76349748    -0.02700
Br2247     Br  0.13539403  0.09382447  0.74970355    -0.02400
H2248       H  0.08851351  0.11810271  0.76517754     0.09800
H2249       H  0.07339407  0.02711237  0.77877468     0.07800
Br2250     Br  0.02626145  0.05100186  0.79270077    -0.02800
C2251       C  0.13820856  0.01022798  0.69215596    -0.09400
C2252       C  0.14606832  0.99545149  0.71260452     0.06800
C2253       C  0.15660328  0.97162153  0.70765595    -0.03200
C2254       C  0.15967251  0.96337986  0.68278933    -0.07600
C2255       C  0.15306947  0.97857547  0.66216468     0.05900
C2256       C  0.14194765  0.00225464  0.66712727    -0.02700
Br2257     Br  0.13119101  0.02457705  0.64084812    -0.02400
H2258       H  0.12976517  0.02838565  0.69566494     0.09800
H2259       H  0.16824676  0.94522070  0.67961185     0.07800
Br2260     Br  0.16695724  0.94909672  0.73399473    -0.02800
C2261       C  0.05850073  0.94853993  0.78685790    -0.09400
C2262       C  0.05673542  0.93407160  0.76468160     0.06800
C2263       C  0.07411215  0.93858116  0.74524681    -0.03200
C2264       C  0.09229846  0.95756510  0.74789872    -0.07600
C2265       C  0.09441741  0.97173089  0.77016964     0.05900
C2266       C  0.07724745  0.96707025  0.78984083    -0.02700
Br2267     Br  0.07807895  0.98570184  0.82079385    -0.02400
H2268       H  0.04542161  0.94510236  0.80210940     0.09800
H2269       H  0.10548141  0.96069451  0.73270913     0.07800
Br2270     Br  0.07572508  0.91787309  0.71581491    -0.02800
C2271       C  0.92898023  0.94672836  0.76860147    -0.09400
C2272       C  0.93602467  0.97219964  0.76713539     0.06800
C2273       C  0.96206664  0.97810104  0.76637887    -0.03200
C2274       C  0.97997682  0.95884002  0.76783844    -0.07600
C2275       C  0.97277229  0.93349839  0.77005832     0.05900
C2276       C  0.94687173  0.92758764  0.77003843    -0.02700
Br2277     Br  0.93426838  0.89388056  0.77011897    -0.02400
H2278       H  0.90922962  0.94154281  0.76844325     0.09800
H2279       H  0.99979789  0.96373939  0.76740312     0.07800
Br2280     Br  0.97520091  0.01164192  0.76463253    -0.02800
C2281       C  0.01201170  0.90254937  0.69085736    -0.09400
C2282       C  0.00061509  0.88684056  0.70886314     0.06800
C2283       C  0.97964257  0.87216269  0.70100594    -0.03200
C2284       C  0.97106002  0.87320520  0.67599908    -0.07600
C2285       C  0.98329883  0.88794488  0.65787419     0.05900
C2286       C  0.00407327  0.90279173  0.66558025    -0.02700
Br2287     Br  0.02206852  0.92433039  0.64282633    -0.02400
H2288       H  0.02730523  0.91478898  0.69637098     0.09800
H2289       H  0.95514524  0.86155890  0.67046285     0.07800
Br2290     Br  0.96084593  0.85073513  0.72292915    -0.02800
C2291       C  0.04216422  0.84567006  0.80914439    -0.09400
C2292       C  0.01874939  0.85274154  0.79835551     0.06800
C2293       C  0.99787392  0.83737142  0.80480267    -0.03200
C2294       C  0.99977947  0.81929073  0.82405290    -0.07600
C2295       C  0.02237250  0.81509692  0.83758284     0.05900
C2296       C  0.04420638  0.82694847  0.82787383    -0.02700
Br2297     Br  0.07773899  0.81649105  0.83638554    -0.02400
H2298       H  0.05953986  0.85365708  0.80238063     0.09800
H2299       H  0.98319717  0.80821079  0.82826182     0.07800
Br2300     Br  0.96622617  0.83863289  0.78757623    -0.02800
C2301       C  0.04996842  0.71534223  0.88740784    -0.09400
C2302       C  0.03217343  0.72503276  0.87026121     0.06800
C2303       C  0.02225819  0.70878556  0.85165854    -0.03200
C2304       C  0.03133074  0.68409790  0.84946837    -0.07600
C2305       C  0.05027483  0.67475550  0.86566703     0.05900
C2306       C  0.05892348  0.69056608  0.88538453    -0.02700
Br2307     Br  0.08194859  0.67927624  0.91089863    -0.02400
H2308       H  0.05735614  0.72726717  0.90231583     0.09800
H2309       H  0.02370796  0.67224928  0.83463148     0.07800
Br2310     Br  0.99539580  0.71888652  0.82959674    -0.02800
C2311       C  0.16451911  0.83760476  0.00614499    -0.09400
C2312       C  0.17176383  0.81215159  0.00535411     0.06800
C2313       C  0.19689299  0.80730188  0.99759913    -0.03200
C2314       C  0.21427493  0.82724234  0.99460049    -0.07600
C2315       C  0.20721104  0.85269655  0.99708425     0.05900
C2316       C  0.18136637  0.85738008  0.00163297    -0.02700
Br2317     Br  0.16671600  0.89026083  0.00078241    -0.02400
H2318       H  0.14499921  0.84235958  0.00924893     0.09800
H2319       H  0.23312342  0.82232040  0.98928244     0.07800
Br2320     Br  0.20887789  0.77488311  0.98734470    -0.02800
C2321       C  0.08507757  0.78237681  0.91640415    -0.09400
C2322       C  0.05931802  0.78220029  0.92237291     0.06800
C2323       C  0.05245878  0.77781614  0.94776103    -0.03200
C2324       C  0.07098710  0.77476411  0.96630653    -0.07600
C2325       C  0.09669476  0.77586963  0.96059261     0.05900
C2326       C  0.10363715  0.77874168  0.93500590    -0.02700
Br2327     Br  0.13771751  0.77503629  0.92366968    -0.02400
H2328       H  0.09080630  0.78434869  0.89692787     0.09800
H2329       H  0.06498815  0.77216160  0.98557820     0.07800
Br2330     Br  0.01847027  0.77710156  0.95956629    -0.02800
C2331       C  0.12506353  0.68076707  0.03909597    -0.09400
C2332       C  0.14796109  0.66933084  0.03318465     0.06800
C2333       C  0.16585430  0.68343941  0.01943752    -0.03200
C2334       C  0.16090468  0.70843686  0.01277213    -0.07600
C2335       C  0.13836195  0.72054202  0.01946126     0.05900
C2336       C  0.11986838  0.70575162  0.03225553    -0.02700
Br2337     Br  0.08714320  0.71682260  0.04234859    -0.02400
H2338       H  0.11094560  0.67008518  0.04924040     0.09800
H2339       H  0.17516449  0.71857014  0.00230878     0.07800
Br2340     Br  0.19835511  0.67064281  0.01047787    -0.02800
C2341       C  0.02583935  0.85488177  0.17599018    -0.09400
C2342       C  0.02273806  0.84860343  0.20161489     0.06800
C2343       C  0.01241313  0.82442500  0.20677909    -0.03200
C2344       C  0.00939438  0.80660949  0.18738384    -0.07600
C2345       C  0.01474819  0.81223736  0.16202417     0.05900
C2346       C  0.02184110  0.83744148  0.15651521    -0.02700
Br2347     Br  0.02633731  0.85005278  0.12279935    -0.02400
H2348       H  0.03096646  0.87389797  0.17079614     0.09800
H2349       H  0.00150710  0.78855955  0.19247583     0.07800
Br2350     Br  0.99847758  0.81454421  0.23859972    -0.02800
C2351       C  0.04948819  0.79092384  0.06368308    -0.09400
C2352       C  0.05486122  0.77689482  0.08537139     0.06800
C2353       C  0.07910730  0.76705678  0.08897661    -0.03200
C2354       C  0.09725547  0.77022495  0.07021557    -0.07600
C2355       C  0.09142868  0.78302456  0.04780883     0.05900
C2356       C  0.06769553  0.79431650  0.04505299    -0.02700
Br2357     Br  0.05984376  0.81582818  0.01720419    -0.02400
H2358       H  0.03123721  0.79974817  0.06154014     0.09800
H2359       H  0.11569314  0.76189138  0.07268670     0.07800
Br2360     Br  0.08777697  0.74855804  0.11879538    -0.02800
C2361       C  0.01544917  0.70236471  0.11713270    -0.09400
C2362       C  0.00251563  0.71997801  0.13203984     0.06800
C2363       C  0.98163779  0.71151240  0.14623848    -0.03200
C2364       C  0.97371787  0.68641658  0.14458273    -0.07600
C2365       C  0.98645486  0.66888219  0.12961232     0.05900
C2366       C  0.00786148  0.67698467  0.11610778    -0.02700
Br2367     Br  0.02660261  0.65464805  0.09495092    -0.02400
H2368       H  0.03129398  0.70846664  0.10588552     0.09800
H2369       H  0.95750770  0.68047760  0.15541576     0.07800
Br2370     Br  0.96139508  0.73334721  0.16657128    -0.02800
C2371       C  0.94241312  0.75912322  0.05146705    -0.09400
C2372       C  0.93678707  0.78200239  0.04004255     0.06800
C2373       C  0.94813973  0.80417286  0.04956379    -0.03200
C2374       C  0.96487283  0.80296745  0.07014589    -0.07600
C2375       C  0.97066468  0.77991336  0.08172141     0.05900
C2376       C  0.95874440  0.75786080  0.07217824    -0.02700
Br2377     Br  0.96142528  0.72533437  0.08702728    -0.02400
H2378       H  0.93342660  0.74206003  0.04458722     0.09800
H2379       H  0.97390117  0.82010513  0.07671727     0.07800
Br2380     Br  0.94277578  0.83634486  0.03423733    -0.02800
C2381       C  0.97253157  0.80442111  0.92678206    -0.09400
C2382       C  0.97498135  0.78214302  0.91275177     0.06800
C2383       C  0.95868976  0.76185726  0.91753319    -0.03200
C2384       C  0.94052404  0.76397299  0.93641185    -0.07600
C2385       C  0.93936333  0.78544951  0.95173505     0.05900
C2386       C  0.95526210  0.80599873  0.94652452    -0.02700
Br2387     Br  0.95527275  0.83588871  0.96668928    -0.02400
H2388       H  0.98506189  0.82015740  0.92323400     0.09800
H2389       H  0.92729200  0.74872179  0.93924803     0.07800
Br2390     Br  0.96037335  0.73121012  0.89855496    -0.02800
C2391       C  0.87157451  0.71114269  0.99037314    -0.09400
C2392       C  0.89511478  0.72262535  0.98560081     0.06800
C2393       C  0.91408087  0.70681826  0.97494813    -0.03200
C2394       C  0.90784031  0.68250413  0.96625857    -0.07600
C2395       C  0.88376521  0.67220110  0.96951924     0.05900
C2396       C  0.86578795  0.68662015  0.98256236    -0.02700
Br2397     Br  0.83211468  0.67495436  0.98903464    -0.02400
H2398       H  0.85705994  0.72133972  0.00022320     0.09800
H2399       H  0.92221389  0.67120248  0.95739597     0.07800
Br2400     Br  0.94942553  0.71417878  0.97285919    -0.02800
C2401       C  0.86314924  0.83829400  0.99047868    -0.09400
C2402       C  0.85911064  0.81264062  0.99589266     0.06800
C2403       C  0.83568031  0.80622000  0.00709565    -0.03200
C2404       C  0.81625309  0.82402682  0.00858907    -0.07600
C2405       C  0.81969834  0.84923112  0.00109934     0.05900
C2406       C  0.84427442  0.85636540  0.99331285    -0.02700
Br2407     Br  0.85434538  0.89066146  0.98715536    -0.02400
H2408       H  0.88163334  0.84478558  0.98484906     0.09800
H2409       H  0.79884010  0.81804453  0.01720796     0.07800
Br2410     Br  0.82927395  0.77498135  0.02416073    -0.02800
C2411       C  0.69443950  0.85818734  0.04482406    -0.09400
C2412       C  0.67526085  0.86999709  0.03099913     0.06800
C2413       C  0.68177010  0.88321816  0.00886224    -0.03200
C2414       C  0.70709176  0.88488855  0.00143184    -0.07600
C2415       C  0.72627014  0.87292333  0.01523692     0.05900
C2416       C  0.71959578  0.85923323  0.03707255    -0.02700
Br2417     Br  0.74393896  0.84301778  0.05837571    -0.02400
H2418       H  0.68978277  0.84770330  0.06169181     0.09800
H2419       H  0.71185139  0.89571369  0.98482483     0.07800
Br2420     Br  0.65713263  0.90035497  0.98871702    -0.02800
C2421       C  0.85219947  0.00309575  0.14389037    -0.09400
C2422       C  0.82854899  0.01322750  0.15014673     0.06800
C2423       C  0.82609172  0.02339435  0.17470404    -0.03200
C2424       C  0.84468921  0.01882483  0.19301851    -0.07600
C2425       C  0.86704864  0.00559931  0.18756670     0.05900
C2426       C  0.87130551  0.99963246  0.16184948    -0.02700
Br2427     Br  0.90310683  0.98894027  0.14854521    -0.02400
H2428       H  0.85622344  0.99823358  0.12451003     0.09800
H2429       H  0.84221950  0.02739600  0.21132709     0.07800
Br2430     Br  0.80113596  0.04782326  0.18376618    -0.02800
C2431       C  0.80910470  0.94148826  0.04464039    -0.09400
C2432       C  0.78588850  0.92903106  0.04149875     0.06800
C2433       C  0.76463358  0.93847282  0.05440079    -0.03200
C2434       C  0.76693593  0.95975177  0.06975466    -0.07600
C2435       C  0.79020303  0.97154521  0.07347052     0.05900
C2436       C  0.81146476  0.96240542  0.06055903    -0.02700
Br2437     Br  0.84398388  0.97818864  0.06319284    -0.02400
H2438       H  0.82550620  0.93502787  0.03452643     0.09800
H2439       H  0.75058476  0.96647897  0.07980829     0.07800
Br2440     Br  0.73238451  0.92225459  0.05452734    -0.02800
C2441       C  0.73047729  0.04965316  0.12203462    -0.09400
C2442       C  0.73658552  0.02406065  0.12266361     0.06800
C2443       C  0.71751953  0.00647675  0.12811394    -0.03200
C2444       C  0.69277277  0.01465194  0.13245206    -0.07600
C2445       C  0.68639837  0.04036969  0.13139405     0.05900
C2446       C  0.70577663  0.05792965  0.12592749    -0.02700
Br2447     Br  0.70063195  0.09363147  0.12466895    -0.02400
H2448       H  0.74520653  0.06343887  0.11901591     0.09800
H2449       H  0.67848537  0.00076442  0.13688285     0.07800
Br2450     Br  0.72457350  0.97126201  0.13055541    -0.02800
C2451       C  0.82044707  0.19305062  0.97977132    -0.09400
C2452       C  0.82501383  0.16887473  0.98969502     0.06800
C2453       C  0.84948208  0.16440364  0.99951257    -0.03200
C2454       C  0.86655759  0.18429201  0.00292040    -0.07600
C2455       C  0.86099424  0.20917495  0.99561819     0.05900
C2456       C  0.83848462  0.21252999  0.98145974    -0.02700
Br2457     Br  0.83239620  0.24134987  0.96054888    -0.02400
H2458       H  0.80354023  0.19673342  0.96914880     0.09800
H2459       H  0.88499812  0.17973622  0.01030536     0.07800
Br2460     Br  0.86200807  0.13137479  0.00721920    -0.02800
C2461       C  0.81169661  0.08433696  0.04011192    -0.09400
C2462       C  0.78810345  0.09494624  0.03463978     0.06800
C2463       C  0.76716080  0.08722028  0.04878903    -0.03200
C2464       C  0.76971204  0.06817499  0.06673413    -0.07600
C2465       C  0.79327271  0.05771490  0.07249111     0.05900
C2466       C  0.81455749  0.06622146  0.05904297    -0.02700
Br2467     Br  0.84773216  0.05303869  0.06424951    -0.02400
H2468       H  0.82806657  0.09012250  0.02946461     0.09800
H2469       H  0.75313958  0.06202256  0.07669508     0.07800
Br2470     Br  0.73548838  0.10395191  0.04707105    -0.02800
C2471       C  0.71510382  0.12398235  0.98281300    -0.09400
C2472       C  0.73488440  0.13659147  0.97075199     0.06800
C2473       C  0.73000991  0.14793147  0.94714164    -0.03200
C2474       C  0.70546975  0.14801918  0.93721168    -0.07600
C2475       C  0.68539735  0.13655341  0.95007151     0.05900
C2476       C  0.69063364  0.12388108  0.97290396    -0.02700
Br2477     Br  0.66574767  0.10488341  0.99102910    -0.02400
H2478       H  0.71863758  0.11388904  0.99992812     0.09800
H2479       H  0.70204111  0.15742389  0.91940451     0.07800
Br2480     Br  0.75628848  0.16139719  0.92629807    -0.02800
C2481       C  0.84268419  0.99735023  0.84762846    -0.09400
C2482       C  0.81679900  0.99884901  0.84139920     0.06800
C2483       C  0.81099396  0.00646974  0.81635035    -0.03200
C2484       C  0.83021771  0.00978805  0.79839515    -0.07600
C2485       C  0.85602228  0.00731014  0.80449990     0.05900
C2486       C  0.86187519  0.00183640  0.83004080    -0.02700
Br2487     Br  0.89576979  0.00162718  0.84312844    -0.02400
H2488       H  0.84832309  0.99400622  0.86696553     0.09800
H2489       H  0.82444031  0.01579352  0.77991491     0.07800
Br2490     Br  0.77795339  0.01584684  0.80504791    -0.02800
C2491       C  0.80800159  0.04928656  0.93049401    -0.09400
C2492       C  0.78719610  0.04864673  0.91411386     0.06800
C2493       C  0.77047373  0.06898649  0.91378535    -0.03200
C2494       C  0.77289920  0.08799317  0.93198392    -0.07600
C2495       C  0.79289198  0.08782668  0.94952127     0.05900
C2496       C  0.81093838  0.06864688  0.94816283    -0.02700
Br2497     Br  0.83912723  0.06734665  0.97078743    -0.02400
H2498       H  0.82176203  0.03435051  0.92985062     0.09800
H2499       H  0.75940371  0.10314080  0.93216448     0.07800
Br2500     Br  0.74600183  0.07273720  0.88733266    -0.02800
C2501       C  0.78321914  0.94750488  0.96822671    -0.09400
C2502       C  0.77855730  0.92289656  0.95993044     0.06800
C2503       C  0.77708361  0.91798356  0.93388629    -0.03200
C2504       C  0.78172315  0.93732045  0.91663149    -0.07600
C2505       C  0.78713500  0.96188439  0.92492723     0.05900
C2506       C  0.78714576  0.96698247  0.95103444    -0.02700
Br2507     Br  0.79303159  0.99981000  0.96467392    -0.02400
H2508       H  0.78445167  0.95153637  0.98824031     0.09800
H2509       H  0.78024358  0.93334826  0.89663045     0.07800
Br2510     Br  0.76690147  0.88569052  0.92115811    -0.02800
C2511       C  0.68382123  0.98504178  0.89408996    -0.09400
C2512       C  0.67890690  0.96246284  0.88129600     0.06800
C2513       C  0.69927550  0.94986813  0.86992424    -0.03200
C2514       C  0.72338662  0.96080612  0.87002870    -0.07600
C2515       C  0.72821230  0.98414001  0.88170347     0.05900
C2516       C  0.70812879  0.99556237  0.89501205    -0.02700
Br2517     Br  0.71145627  0.02574126  0.91442536    -0.02400
H2518       H  0.66849254  0.99477587  0.90326457     0.09800
H2519       H  0.73853284  0.95089181  0.86076626     0.07800
Br2520     Br  0.69522798  0.91863910  0.85213302    -0.02800
C2521       C  0.83802680  0.49631564  0.61764010    -0.09400
C2522       C  0.81841653  0.48517426  0.63150513     0.06800
C2523       C  0.82411108  0.46348743  0.64603697    -0.03200
C2524       C  0.84880174  0.45443170  0.64712583    -0.07600
C2525       C  0.86836628  0.46609153  0.63383280     0.05900
C2526       C  0.86271941  0.48713474  0.61873124    -0.02700
Br2527     Br  0.88757687  0.50335625  0.59814707    -0.02400
H2528       H  0.83423379  0.51231924  0.60577095     0.09800
H2529       H  0.85278944  0.43818547  0.65876263     0.07800
Br2530     Br  0.79952403  0.44355438  0.66350032    -0.02800
C2531       C  0.76635469  0.42131636  0.56147605    -0.09400
C2532       C  0.76853432  0.43021678  0.53661038     0.06800
C2533       C  0.76840340  0.45655260  0.53268486    -0.03200
C2534       C  0.76547309  0.47292027  0.55325779    -0.07600
C2535       C  0.76196642  0.46378925  0.57785329     0.05900
C2536       C  0.76257472  0.43758781  0.58178773    -0.02700
Br2537     Br  0.75883508  0.42239173  0.61427264    -0.02400
H2538       H  0.76703282  0.40130532  0.56517822     0.09800
H2539       H  0.76538888  0.49303028  0.54993715     0.07800
Br2540     Br  0.77029060  0.47189017  0.50005470    -0.02800
C2541       C  0.82711938  0.36954318  0.45920231    -0.09400
C2542       C  0.82216808  0.38258489  0.48162417     0.06800
C2543       C  0.84230230  0.39398403  0.49482890    -0.03200
C2544       C  0.86691724  0.39222747  0.48542618    -0.07600
C2545       C  0.87171078  0.37990988  0.46247371     0.05900
C2546       C  0.85145434  0.36843224  0.44940920    -0.02700
Br2547     Br  0.85587498  0.34979929  0.41870776    -0.02400
H2548       H  0.81176841  0.36090143  0.44872673     0.09800
H2549       H  0.88233528  0.40058946  0.49600554     0.07800
Br2550     Br  0.83717565  0.41115698  0.52621818    -0.02800
C2551       C  0.77996039  0.46055265  0.41895989    -0.09400
C2552       C  0.75647775  0.47141887  0.41453779     0.06800
C2553       C  0.73561040  0.46299264  0.42849964    -0.03200
C2554       C  0.73820983  0.44298505  0.44543191    -0.07600
C2555       C  0.76173109  0.43179891  0.44986887     0.05900
C2556       C  0.78288337  0.44118309  0.43652977    -0.02700
Br2557     Br  0.81639914  0.42880460  0.44022957    -0.02400
H2558       H  0.79623106  0.46728835  0.40866964     0.09800
H2559       H  0.72196839  0.43698602  0.45617214     0.07800
Br2560     Br  0.70407790  0.48015575  0.42778919    -0.02800
C2561       C  0.82202256  0.54334451  0.38955534    -0.09400
C2562       C  0.81212378  0.52518152  0.37285546     0.06800
C2563       C  0.82871938  0.51295997  0.35632467    -0.03200
C2564       C  0.85411586  0.52028649  0.35541951    -0.07600
C2565       C  0.86389793  0.53940383  0.37120323     0.05900
C2566       C  0.84759846  0.55025167  0.38913697    -0.02700
Br2567     Br  0.85912423  0.57327870  0.41461611    -0.02400
H2568       H  0.80973762  0.55241855  0.40299949     0.09800
H2569       H  0.86626138  0.51101436  0.34198014     0.07800
Br2570     Br  0.81817938  0.48494272  0.33591377    -0.02800
C2571       C  0.75492680  0.59825743  0.43699400    -0.09400
C2572       C  0.75507872  0.58880186  0.46180374     0.06800
C2573       C  0.75301607  0.56248938  0.46523242    -0.03200
C2574       C  0.75098318  0.54657579  0.44432493    -0.07600
C2575       C  0.75091768  0.55605729  0.41969765     0.05900
C2576       C  0.75300118  0.58220084  0.41606740    -0.02700
Br2577     Br  0.75513498  0.59684756  0.38311024    -0.02400
H2578       H  0.75662912  0.61831698  0.43383523     0.09800
H2579       H  0.74944674  0.52647016  0.44734120     0.07800
Br2580     Br  0.75143434  0.54643394  0.49745283    -0.02800
C2581       C  0.77929020  0.58104326  0.56054220    -0.09400
C2582       C  0.75539158  0.58464340  0.54957828     0.06800
C2583       C  0.73540666  0.56884791  0.55689750    -0.03200
C2584       C  0.73961816  0.54991691  0.57473411    -0.07600
C2585       C  0.76346030  0.54657164  0.58597258     0.05900
C2586       C  0.78333525  0.56255059  0.57886516    -0.02700
Br2587     Br  0.81578319  0.56119303  0.59465290    -0.02400
H2588       H  0.79494106  0.59284505  0.55501532     0.09800
H2589       H  0.72413457  0.53763434  0.57986796     0.07800
Br2590     Br  0.70262943  0.57091946  0.54169780    -0.02800
C2591       C  0.83053232  0.62480497  0.50340083    -0.09400
C2592       C  0.81128874  0.63266636  0.51951345     0.06800
C2593       C  0.81776518  0.64135541  0.54388021    -0.03200
C2594       C  0.84312847  0.64383624  0.55094561    -0.07600
C2595       C  0.86258884  0.63735230  0.53433136     0.05900
C2596       C  0.85596466  0.62699028  0.51056134    -0.02700
Br2597     Br  0.88052710  0.61417249  0.48753621    -0.02400
H2598       H  0.82574983  0.61701933  0.48508932     0.09800
H2599       H  0.84762788  0.65124759  0.56949232     0.07800
Br2600     Br  0.79276711  0.64843142  0.56892910    -0.02800
C2601       C  0.56249857  0.38468520  0.78526195    -0.09400
C2602       C  0.53656766  0.38460948  0.78019326     0.06800
C2603       C  0.51967530  0.38411898  0.80044012    -0.03200
C2604       C  0.52884046  0.38245215  0.82527548    -0.07600
C2605       C  0.55493335  0.38201214  0.83056493     0.05900
C2606       C  0.57181929  0.38396766  0.81003039    -0.02700
Br2607     Br  0.60777716  0.38574315  0.81381983    -0.02400
H2608       H  0.57565598  0.38545059  0.76974457     0.09800
H2609       H  0.51539476  0.38131106  0.84050281     0.07800
Br2610     Br  0.48401814  0.38564611  0.79491122    -0.02800
C2611       C  0.46857180  0.46890296  0.70941188    -0.09400
C2612       C  0.44447615  0.46132510  0.71671372     0.06800
C2613       C  0.43998996  0.43601724  0.72298275    -0.03200
C2614       C  0.46016674  0.41921208  0.72395395    -0.07600
C2615       C  0.48479787  0.42735649  0.71867297     0.05900
C2616       C  0.48880611  0.45230342  0.71071149    -0.02700
Br2617     Br  0.52112665  0.46478841  0.70085706    -0.02400
H2618       H  0.47175433  0.48806837  0.70328992     0.09800
H2619       H  0.45674906  0.39988573  0.72948271     0.07800
Br2620     Br  0.40706522  0.42418034  0.73215277    -0.02800
C2621       C  0.37718323  0.49862504  0.79618297    -0.09400
C2622       C  0.39743990  0.48822592  0.78284267     0.06800
C2623       C  0.41353425  0.47135517  0.79611730    -0.03200
C2624       C  0.40838668  0.46483817  0.82122547    -0.07600
C2625       C  0.38793422  0.47500623  0.83423693     0.05900
C2626       C  0.37235385  0.49236128  0.82137506    -0.02700
Br2627     Br  0.34317360  0.50743894  0.83622174    -0.02400
H2628       H  0.36480554  0.51188250  0.78690196     0.09800
H2629       H  0.42061263  0.45157626  0.83073654     0.07800
Br2630     Br  0.44249819  0.45506458  0.78237464    -0.02800
C2631       C  0.48684125  0.56317412  0.74009893    -0.09400
C2632       C  0.47998712  0.58744020  0.73253323     0.06800
C2633       C  0.45429042  0.59160469  0.72716524    -0.03200
C2634       C  0.43706714  0.57147641  0.72740066    -0.07600
C2635       C  0.44438990  0.54648411  0.73266165     0.05900
C2636       C  0.47003677  0.54288619  0.73994794    -0.02700
Br2637     Br  0.48620062  0.51210748  0.74958597    -0.02400
H2638       H  0.50604973  0.55933075  0.74552957     0.09800
H2639       H  0.41751780  0.57581305  0.72380691     0.07800
Br2640     Br  0.44035569  0.62431987  0.72203618    -0.02800
C2641       C  0.49221117  0.62042821  0.79898730    -0.09400
C2642       C  0.51266416  0.63513372  0.79063120     0.06800
C2643       C  0.52306714  0.65303195  0.80735302    -0.03200
C2644       C  0.51254901  0.65653217  0.83128896    -0.07600
C2645       C  0.49146892  0.64254364  0.83945016     0.05900
C2646       C  0.48157715  0.62394454  0.82298206    -0.02700
Br2647     Br  0.45368922  0.60261796  0.83172948    -0.02400
H2648       H  0.48387598  0.60655169  0.78649925     0.09800
H2649       H  0.52085859  0.67071698  0.84348543     0.07800
Br2650     Br  0.55223596  0.67270398  0.79893245    -0.02800
C2651       C  0.71139526  0.51694991  0.70116969    -0.09400
C2652       C  0.68643591  0.51041376  0.69465788     0.06800
C2653       C  0.68199247  0.50290251  0.66929900    -0.03200
C2654       C  0.70208197  0.49876549  0.65282180    -0.07600
C2655       C  0.72731727  0.50334292  0.65983403     0.05900
C2656       C  0.73130829  0.51480531  0.68382869    -0.02700
Br2657     Br  0.76218009  0.53135765  0.69344799    -0.02400
H2658       H  0.71554644  0.52531629  0.71929007     0.09800
H2659       H  0.69749319  0.49328629  0.63368743     0.07800
Br2660     Br  0.64883614  0.49934821  0.65481477    -0.02800
C2661       C  0.60090802  0.45821798  0.70343615    -0.09400
C2662       C  0.60823555  0.46793894  0.72706985     0.06800
C2663       C  0.59711104  0.45782381  0.74890913    -0.03200
C2664       C  0.57885825  0.43882240  0.74674205    -0.07600
C2665       C  0.57158671  0.42898694  0.72314022     0.05900
C2666       C  0.58285339  0.43903926  0.70125737    -0.02700
Br2667     Br  0.57279512  0.42953766  0.66769161    -0.02400
H2668       H  0.60886571  0.46603542  0.68638575     0.09800
H2669       H  0.57048711  0.43156208  0.76379998     0.07800
Br2670     Br  0.60715446  0.46765232  0.78231423    -0.02800
C2671       C  0.59098658  0.59477660  0.73811945    -0.09400
C2672       C  0.56624338  0.58829587  0.73094865     0.06800
C2673       C  0.56229019  0.56518304  0.71824186    -0.03200
C2674       C  0.58199918  0.54800485  0.71586404    -0.07600
C2675       C  0.60641406  0.55424313  0.72364055     0.05900
C2676       C  0.61108201  0.57822048  0.73405735    -0.02700
Br2677     Br  0.64446060  0.58917393  0.74291899    -0.02400
H2678       H  0.59476500  0.61307064  0.74638151     0.09800
H2679       H  0.57842686  0.52987282  0.70715876     0.07800
Br2680     Br  0.53209567  0.55721303  0.70009529    -0.02800
C2681       C  0.63585839  0.54206765  0.79408418    -0.09400
C2682       C  0.65068715  0.52226966  0.78495058     0.06800
C2683       C  0.66575334  0.50886917  0.80210809    -0.03200
C2684       C  0.66725068  0.51654005  0.82738235    -0.07600
C2685       C  0.65378654  0.53753019  0.83631282     0.05900
C2686       C  0.63737989  0.54992434  0.81933213    -0.02700
Br2687     Br  0.61649697  0.57765137  0.82898524    -0.02400
H2688       H  0.62339736  0.55196437  0.78134726     0.09800
H2689       H  0.67952762  0.50622847  0.83998710     0.07800
Br2690     Br  0.68346086  0.47909317  0.79228640    -0.02800
C2691       C  0.67778130  0.67905928  0.49745834    -0.09400
C2692       C  0.68475587  0.70452860  0.50056738     0.06800
C2693       C  0.70955178  0.70918303  0.50994272    -0.03200
C2694       C  0.72693142  0.68939662  0.51239789    -0.07600
C2695       C  0.72035387  0.66411408  0.50740113     0.05900
C2696       C  0.69475859  0.65922972  0.50123189    -0.02700
Br2697     Br  0.68102976  0.62580169  0.49837573    -0.02400
H2698       H  0.65844763  0.67431714  0.49278452     0.09800
H2699       H  0.74522520  0.69420892  0.51941091     0.07800
Br2700     Br  0.72132729  0.74084471  0.52314359    -0.02800
C2701       C  0.65874215  0.80054393  0.46235865    -0.09400
C2702       C  0.65270786  0.79533598  0.48750859     0.06800
C2703       C  0.64688363  0.81542622  0.50371173    -0.03200
C2704       C  0.64763372  0.84026758  0.49472723    -0.07600
C2705       C  0.65357529  0.84564597  0.46940740     0.05900
C2706       C  0.65902816  0.82524790  0.45314577    -0.02700
Br2707     Br  0.66819381  0.82941225  0.41844125    -0.02400
H2708       H  0.66291299  0.78516842  0.44965690     0.09800
H2709       H  0.64361970  0.85546670  0.50767747     0.07800
Br2710     Br  0.63867964  0.80985105  0.53844812    -0.02800
C2711       C  0.57382039  0.72208339  0.42720076    -0.09400
C2712       C  0.56805176  0.74631410  0.41814191     0.06800
C2713       C  0.58107148  0.76694556  0.42860996    -0.03200
C2714       C  0.59970164  0.76312754  0.44695604    -0.07600
C2715       C  0.60571297  0.73893890  0.45572799     0.05900
C2716       C  0.59231499  0.71822787  0.44575093    -0.02700
Br2717     Br  0.59652923  0.68466855  0.45833786    -0.02400
H2718       H  0.56339845  0.70601035  0.42027351     0.09800
H2719       H  0.60956146  0.77938638  0.45445904     0.07800
Br2720     Br  0.57496051  0.80076365  0.41852360    -0.02800
C2721       C  0.52279477  0.81978329  0.37730130    -0.09400
C2722       C  0.50693225  0.79954996  0.37128269     0.06800
C2723       C  0.48230354  0.80470563  0.36264849    -0.03200
C2724       C  0.47368988  0.82954825  0.36163502    -0.07600
C2725       C  0.48949334  0.84987088  0.36803770     0.05900
C2726       C  0.51450284  0.84470699  0.37566791    -0.02700
Br2727     Br  0.53830396  0.87051514  0.38469948    -0.02400
H2728       H  0.54202795  0.81624664  0.38260071     0.09800
H2729       H  0.45474199  0.83303096  0.35485411     0.07800
Br2730     Br  0.45973953  0.77892943  0.35104228    -0.02800
C2731       C  0.44347360  0.73888071  0.44202432    -0.09400
C2732       C  0.45242631  0.74334418  0.46670216     0.06800
C2733       C  0.47883146  0.74610953  0.47012721    -0.03200
C2734       C  0.49499700  0.74460363  0.44932576    -0.07600
C2735       C  0.48588902  0.73955660  0.42493981     0.05900
C2736       C  0.45971692  0.73618002  0.42156441    -0.02700
Br2737     Br  0.44427952  0.72810672  0.38979558    -0.02400
H2738       H  0.42343074  0.73725691  0.43841959     0.09800
H2739       H  0.51508735  0.74698389  0.45232581     0.07800
Br2740     Br  0.49516696  0.75050742  0.50212837    -0.02800
C2741       C  0.42382777  0.81156657  0.53714076    -0.09400
C2742       C  0.40746838  0.80079320  0.51909738     0.06800
C2743       C  0.38989424  0.81668473  0.50719831    -0.03200
C2744       C  0.38716308  0.84164707  0.51525997    -0.07600
C2745       C  0.40207788  0.85172673  0.53488234     0.05900
C2746       C  0.42109088  0.83647037  0.54540795    -0.02700
Br2747     Br  0.44450153  0.84844284  0.57051689    -0.02400
H2748       H  0.43897179  0.80068664  0.54500469     0.09800
H2749       H  0.37309469  0.85321006  0.50609674     0.07800
Br2750     Br  0.37131717  0.80644043  0.47787662    -0.02800
C2751       C  0.50885407  0.70272498  0.67669756    -0.09400
C2752       C  0.53281285  0.70883156  0.66682535     0.06800
C2753       C  0.55381398  0.69811077  0.67921902    -0.03200
C2754       C  0.55035717  0.67849094  0.69650625    -0.07600
C2755       C  0.52621927  0.66900723  0.70260278     0.05900
C2756       C  0.50549528  0.68359943  0.69462153    -0.02700
Br2757     Br  0.47279095  0.68104220  0.70945554    -0.02400
H2758       H  0.49244602  0.71335780  0.67111755     0.09800
H2759       H  0.56696930  0.67105522  0.70564693     0.07800
Br2760     Br  0.58767058  0.71023746  0.67550623    -0.02800
C2761       C  0.49191241  0.72516380  0.57193436    -0.09400
C2762       C  0.49267983  0.74533506  0.58905538     0.06800
C2763       C  0.47244706  0.76224936  0.58960073    -0.03200
C2764       C  0.45229038  0.75927976  0.57262937    -0.07600
C2765       C  0.45219288  0.73995607  0.55453628     0.05900
C2766       C  0.47182080  0.72228422  0.55489605    -0.02700
Br2767     Br  0.47182317  0.69381168  0.53266938    -0.02400
H2768       H  0.50680764  0.71132104  0.57216169     0.09800
H2769       H  0.43644340  0.77182572  0.57389460     0.07800
Br2770     Br  0.47117398  0.78900191  0.61381836    -0.02800
C2771       C  0.61832359  0.74142754  0.56842443    -0.09400
C2772       C  0.60900562  0.73980319  0.54363177     0.06800
C2773       C  0.58274994  0.73735890  0.53985087    -0.03200
C2774       C  0.56652817  0.73742447  0.56053832    -0.07600
C2775       C  0.57589048  0.73870220  0.58525073     0.05900
C2776       C  0.60209704  0.74065281  0.58912561    -0.02700
Br2777     Br  0.61680591  0.74331609  0.62204813    -0.02400
H2778       H  0.63840175  0.74327763  0.57171656     0.09800
H2779       H  0.54642408  0.73580974  0.55732532     0.07800
Br2780     Br  0.56770555  0.73111054  0.50753813    -0.02800
C2781       C  0.53737377  0.81747638  0.62227419    -0.09400
C2782       C  0.54942198  0.79905206  0.63701311     0.06800
C2783       C  0.56969881  0.80673057  0.65277586    -0.03200
C2784       C  0.57747665  0.83192674  0.65312393    -0.07600
C2785       C  0.56525423  0.85025657  0.63862926     0.05900
C2786       C  0.54466897  0.84289520  0.62338755    -0.02700
Br2787     Br  0.52636367  0.86646050  0.60312281    -0.02400
H2788       H  0.52202505  0.81214692  0.60985284     0.09800
H2789       H  0.59298808  0.83737398  0.66535419     0.07800
Br2790     Br  0.58882122  0.78423220  0.67358686    -0.02800
C2791       C  0.50503444  0.31723373  0.66607177    -0.09400
C2792       C  0.52735977  0.30993169  0.65399010     0.06800
C2793       C  0.55037626  0.31779562  0.66551880    -0.03200
C2794       C  0.55041898  0.33688865  0.68382771    -0.07600
C2795       C  0.52788453  0.34725470  0.69288707     0.05900
C2796       C  0.50518848  0.33474270  0.68590665    -0.02700
Br2797     Br  0.47407254  0.33868809  0.70384698    -0.02400
H2798       H  0.48720389  0.30879512  0.66054181     0.09800
H2799       H  0.56826663  0.34296186  0.69151112     0.07800
Br2800     Br  0.58235249  0.30194787  0.65979675    -0.02800
C2801       C  0.53522440  0.20249526  0.61556285    -0.09400
C2802       C  0.51765560  0.22156565  0.62014612     0.06800
C2803       C  0.49284920  0.21477623  0.62678415    -0.03200
C2804       C  0.48599079  0.18942361  0.62861226    -0.07600
C2805       C  0.50362419  0.17026036  0.62486530     0.05900
C2806       C  0.52856241  0.17699147  0.61836494    -0.02700
Br2807     Br  0.55402685  0.15224334  0.61253117    -0.02400
H2808       H  0.55427225  0.20746897  0.61024440     0.09800
H2809       H  0.46691874  0.18468081  0.63402958     0.07800
Br2810     Br  0.46748008  0.23928016  0.63405041    -0.02800
C2811       C  0.45140038  0.29591665  0.54440605    -0.09400
C2812       C  0.44214260  0.27220597  0.53725945     0.06800
C2813       C  0.45221042  0.25084205  0.54915393    -0.03200
C2814       C  0.47137877  0.25355594  0.56738276    -0.07600
C2815       C  0.48052543  0.27751218  0.57451861     0.05900
C2816       C  0.47016739  0.29892067  0.56270698    -0.02700
Br2817     Br  0.48231453  0.33243175  0.56894220    -0.02400
H2818       H  0.44393411  0.31329236  0.53468620     0.09800
H2819       H  0.47885415  0.23710136  0.57604250     0.07800
Br2820     Br  0.43941746  0.21775368  0.54220476    -0.02800
C2821       C  0.37690825  0.20401976  0.48796641    -0.09400
C2822       C  0.39693219  0.21776793  0.47745891     0.06800
C2823       C  0.41161022  0.20593788  0.45865073    -0.03200
C2824       C  0.40610373  0.18131755  0.45090241    -0.07600
C2825       C  0.38603871  0.16775688  0.46126919     0.05900
C2826       C  0.37116505  0.17951114  0.47993976    -0.02700
Br2827     Br  0.34128491  0.16438109  0.49370357    -0.02400
H2828       H  0.36516939  0.21266035  0.50217993     0.09800
H2829       H  0.41748968  0.17279832  0.43633205     0.07800
Br2830     Br  0.43815150  0.22217508  0.44072101    -0.02800
C2831       C  0.46705184  0.28332029  0.41269421    -0.09400
C2832       C  0.49179394  0.28033550  0.42195632     0.06800
C2833       C  0.49496599  0.27660089  0.44831907    -0.03200
C2834       C  0.47402208  0.27717247  0.46426698    -0.07600
C2835       C  0.44966101  0.28110719  0.45486379     0.05900
C2836       C  0.44626407  0.28402259  0.42866552    -0.02700
Br2837     Br  0.41369449  0.28637614  0.41292942    -0.02400
H2838       H  0.46359719  0.28477785  0.39261779     0.09800
H2839       H  0.47679358  0.27440557  0.48433232     0.07800
Br2840     Br  0.52646208  0.27071402  0.46499740    -0.02800
C2841       C  0.57810348  0.19656116  0.36307099    -0.09400
C2842       C  0.56278672  0.17768382  0.37358607     0.06800
C2843       C  0.54013826  0.18496564  0.38537714    -0.03200
C2844       C  0.53347029  0.21051126  0.38672679    -0.07600
C2845       C  0.54840751  0.22924713  0.37551060     0.05900
C2846       C  0.57092179  0.22197759  0.36349608    -0.02700
Br2847     Br  0.59280569  0.24591282  0.34749220    -0.02400
H2848       H  0.59534201  0.19142213  0.35359135     0.09800
H2849       H  0.51630260  0.21574879  0.39629386     0.07800
Br2850     Br  0.51788609  0.16088279  0.40055221    -0.02800
C2851       C  0.73628798  0.32775102  0.49092713    -0.09400
C2852       C  0.73086242  0.35325850  0.49574624     0.06800
C2853       C  0.70565887  0.35907949  0.50221723    -0.03200
C2854       C  0.68781864  0.33992685  0.50573772    -0.07600
C2855       C  0.69357678  0.31424916  0.50252106     0.05900
C2856       C  0.71796207  0.30868312  0.49319703    -0.02700
Br2857     Br  0.72731017  0.27646874  0.47982649    -0.02400
H2858       H  0.75443505  0.32226844  0.48383468     0.09800
H2859       H  0.66875092  0.34557989  0.50990508     0.07800
Br2860     Br  0.69340215  0.39294364  0.50566473    -0.02800
C2861       C  0.59941134  0.29971858  0.46162861    -0.09400
C2862       C  0.61866872  0.28230882  0.45713287     0.06800
C2863       C  0.61973891  0.26997143  0.43375227    -0.03200
C2864       C  0.60011090  0.27299147  0.41640890    -0.07600
C2865       C  0.58014438  0.28932656  0.42148797     0.05900
C2866       C  0.58036467  0.30359365  0.44378411    -0.02700
Br2867     Br  0.55520810  0.32847529  0.45049650    -0.02400
H2868       H  0.59942023  0.31057684  0.47890634     0.09800
H2869       H  0.60040049  0.26253885  0.39898167     0.07800
Br2870     Br  0.64787246  0.24966574  0.42434758    -0.02800
C2871       C  0.59328272  0.28079603  0.58228431    -0.09400
C2872       C  0.56829730  0.28077204  0.57340100     0.06800
C2873       C  0.56386770  0.28323996  0.54730850    -0.03200
C2874       C  0.58423130  0.28492723  0.53069117    -0.07600
C2875       C  0.60917414  0.28532803  0.53965519     0.05900
C2876       C  0.61359174  0.28316823  0.56578573    -0.02700
Br2877     Br  0.64685808  0.28175318  0.58005136    -0.02400
H2878       H  0.59703826  0.27891871  0.60229220     0.09800
H2879       H  0.58048183  0.28623473  0.51068375     0.07800
Br2880     Br  0.53071293  0.28672805  0.53343361    -0.02800
C2881       C  0.66764539  0.22155785  0.54438033    -0.09400
C2882       C  0.65727832  0.22539545  0.52024175     0.06800
C2883       C  0.64620619  0.20463463  0.50774070    -0.03200
C2884       C  0.64570194  0.18089542  0.51926071    -0.07600
C2885       C  0.65629526  0.17690866  0.54328465     0.05900
C2886       C  0.66740769  0.19773693  0.55585121    -0.02700
Br2887     Br  0.68461332  0.19483213  0.58762855    -0.02400
H2888       H  0.67619915  0.23718752  0.55438252     0.09800
H2889       H  0.63754939  0.16522314  0.50895425     0.07800
Br2890     Br  0.63350794  0.20674678  0.47397044    -0.02800
C2891       C  0.33182970  0.69565188  0.48991832    -0.09400
C2892       C  0.33629545  0.67047293  0.49680489     0.06800
C2893       C  0.36093095  0.66479403  0.50549658    -0.03200
C2894       C  0.37840591  0.68409224  0.51077662    -0.07600
C2895       C  0.37327169  0.70968436  0.50600777     0.05900
C2896       C  0.35019798  0.71466723  0.49309333    -0.02700
Br2897     Br  0.34325806  0.74514620  0.47514352    -0.02400
H2898       H  0.31462079  0.70061576  0.48022507     0.09800
H2899       H  0.39689454  0.67869816  0.51749175     0.07800
Br2900     Br  0.37301863  0.63089657  0.50869890    -0.02800
C2901       C  0.22615851  0.62549406  0.49159299    -0.09400
C2902       C  0.24375971  0.64198677  0.48052398     0.06800
C2903       C  0.23527962  0.65832516  0.46120665    -0.03200
C2904       C  0.21027488  0.65691361  0.45275214    -0.07600
C2905       C  0.19302376  0.64002331  0.46342156     0.05900
C2906       C  0.20103812  0.62449645  0.48333595    -0.02700
Br2907     Br  0.17887570  0.60057407  0.49881958    -0.02400
H2908       H  0.23201616  0.61301023  0.50661217     0.09800
H2909       H  0.20408475  0.66951990  0.43793780     0.07800
Br2910     Br  0.25645086  0.68244279  0.44449974    -0.02800
C2911       C  0.29091637  0.57206799  0.41222236    -0.09400
C2912       C  0.29968287  0.54852709  0.42015665     0.06800
C2913       C  0.31081335  0.54639627  0.44425069    -0.03200
C2914       C  0.31343216  0.56769520  0.45962907    -0.07600
C2915       C  0.30411953  0.59109915  0.45197191     0.05900
C2916       C  0.29261794  0.59312681  0.42806725    -0.02700
Br2917     Br  0.27880291  0.62407225  0.41618177    -0.02400
H2918       H  0.28269588  0.57404366  0.39360611     0.09800
H2919       H  0.32269585  0.56592979  0.47774680     0.07800
Br2920     Br  0.32324545  0.51516147  0.45704910    -0.02800
C2921       C  0.21503548  0.45823578  0.36537243    -0.09400
C2922       C  0.19508481  0.47509103  0.36898435     0.06800
C2923       C  0.20092699  0.50038302  0.37530222    -0.03200
C2924       C  0.22614538  0.50812153  0.37790259    -0.07600
C2925       C  0.24588405  0.49125914  0.37393416     0.05900
C2926       C  0.24015647  0.46609545  0.36762368    -0.02700
Br2927     Br  0.26592365  0.44141051  0.36264228    -0.02400
H2928       H  0.21111246  0.43884655  0.36036561     0.09800
H2929       H  0.23038549  0.52743999  0.38302214     0.07800
Br2930     Br  0.17556906  0.52508042  0.38186505    -0.02800
C2931       C  0.34305079  0.30409760  0.48278612    -0.09400
C2932       C  0.36700662  0.30859701  0.49344509     0.06800
C2933       C  0.37149685  0.33290242  0.50368351    -0.03200
C2934       C  0.35162828  0.34975334  0.50704476    -0.07600
C2935       C  0.32699251  0.34423116  0.49877640     0.05900
C2936       C  0.32372031  0.32196635  0.48418007    -0.02700
Br2937     Br  0.29507346  0.31575370  0.46262466    -0.02400
H2938       H  0.33948664  0.28737816  0.47174474     0.09800
H2939       H  0.35604446  0.36802270  0.51492916     0.07800
Br2940     Br  0.40456794  0.34569807  0.51156300    -0.02800
C2941       C  0.27737768  0.45217618  0.42871889    -0.09400
C2942       C  0.30177980  0.46062466  0.42265889     0.06800
C2943       C  0.32240425  0.44922986  0.43494710    -0.03200
C2944       C  0.31816781  0.43041622  0.45303429    -0.07600
C2945       C  0.29364662  0.42184944  0.45892172     0.05900
C2946       C  0.27322571  0.43294604  0.44623231    -0.02700
Br2947     Br  0.23936736  0.42137744  0.44989474    -0.02400
H2948       H  0.26118440  0.46009311  0.41922666     0.09800
H2949       H  0.33429313  0.42244214  0.46263124     0.07800
Br2950     Br  0.35669941  0.45911558  0.42901519    -0.02800
C2951       C  0.21533018  0.37702546  0.49811365    -0.09400
C2952       C  0.23582911  0.36899327  0.51265038     0.06800
C2953       C  0.23112696  0.35828147  0.53662585    -0.03200
C2954       C  0.20644804  0.35683961  0.54576702    -0.07600
C2955       C  0.18600412  0.36555572  0.53142604     0.05900
C2956       C  0.19065270  0.37550344  0.50721417    -0.02700
Br2957     Br  0.16438155  0.38892873  0.48633124    -0.02400
H2958       H  0.21847268  0.38462826  0.47958682     0.09800
H2959       H  0.20320009  0.34865577  0.56417245     0.07800
Br2960     Br  0.25752818  0.34704332  0.55876947    -0.02800
C2961       C  0.32236374  0.51515330  0.67691750    -0.09400
C2962       C  0.32947299  0.51327429  0.65137616     0.06800
C2963       C  0.35566746  0.51137027  0.64656472    -0.03200
C2964       C  0.37301661  0.50898022  0.66639729    -0.07600
C2965       C  0.36575585  0.50871322  0.69191797     0.05900
C2966       C  0.33995541  0.51386003  0.69686433    -0.02700
Br2967     Br  0.32681619  0.52347227  0.72911421    -0.02400
H2968       H  0.30301270  0.51829250  0.68203395     0.09800
H2969       H  0.39277330  0.50737404  0.66167060     0.07800
Br2970     Br  0.37001752  0.51283979  0.61347497    -0.02800
C2971       C  0.27116494  0.45477894  0.56951433    -0.09400
C2972       C  0.29445674  0.46550792  0.57602067     0.06800
C2973       C  0.31643834  0.45482484  0.56562707    -0.03200
C2974       C  0.31478939  0.43425845  0.54920013    -0.07600
C2975       C  0.29156981  0.42345753  0.54249348     0.05900
C2976       C  0.26949059  0.43389096  0.55327447    -0.02700
Br2977     Br  0.23646135  0.42008537  0.54879366    -0.02400
H2978       H  0.25411607  0.46236568  0.57761777     0.09800
H2979       H  0.33196344  0.42709347  0.54097901     0.07800
Br2980     Br  0.34944708  0.46824190  0.57110078    -0.02800
C2981       C  0.29412873  0.56856945  0.52744811    -0.09400
C2982       C  0.29495318  0.59372864  0.53554294     0.06800
C2983       C  0.29599861  0.59866075  0.56174415    -0.03200
C2984       C  0.29704339  0.57869359  0.57885080    -0.07600
C2985       C  0.29742957  0.55361972  0.57057976     0.05900
C2986       C  0.29612858  0.54865612  0.54451668    -0.02700
Br2987     Br  0.29996728  0.51550814  0.53077741    -0.02400
H2988       H  0.29296013  0.56419555  0.50762216     0.09800
H2989       H  0.29735712  0.58281490  0.59888515     0.07800
Br2990     Br  0.29454622  0.63191194  0.57581073    -0.02800
C2991       C  0.23155866  0.54668509  0.60674657    -0.09400
C2992       C  0.23882645  0.52383228  0.61783298     0.06800
C2993       C  0.22112556  0.51063334  0.63241182    -0.03200
C2994       C  0.19677145  0.52022018  0.63565267    -0.07600
C2995       C  0.18938143  0.54340724  0.62503109     0.05900
C2996       C  0.20737791  0.55674377  0.61050970    -0.02700
Br2997     Br  0.20103399  0.58928430  0.59627089    -0.02400
H2998       H  0.24513790  0.55732612  0.59589076     0.09800
H2999       H  0.18366040  0.50950746  0.64698246     0.07800
Br3000     Br  0.22934137  0.47923024  0.64811914    -0.02800
C3001       C  0.72851008  0.51656192  0.31174510    -0.09400
C3002       C  0.72119152  0.51471748  0.33723117     0.06800
C3003       C  0.69512907  0.51115759  0.34179892    -0.03200
C3004       C  0.67806633  0.50783125  0.32184096    -0.07600
C3005       C  0.68537809  0.50858739  0.29632812     0.05900
C3006       C  0.71112653  0.51447374  0.29163449    -0.02700
Br3007     Br  0.72460509  0.52375453  0.25951661    -0.02400
H3008       H  0.74773717  0.52054873  0.30686184     0.09800
H3009       H  0.65837231  0.50531332  0.32646463     0.07800
Br3010     Br  0.68058119  0.51149668  0.37481631    -0.02800
C3011       C  0.63026451  0.48223712  0.19342975    -0.09400
C3012       C  0.64937403  0.49710276  0.20467877     0.06800
C3013       C  0.66880321  0.50609486  0.18892386    -0.03200
C3014       C  0.67008008  0.49837502  0.16367161    -0.07600
C3015       C  0.65212607  0.48186517  0.15306236     0.05900
C3016       C  0.63158933  0.47438313  0.16814040    -0.02700
Br3017     Br  0.60448971  0.45386436  0.15537282    -0.02400
H3018       H  0.61420851  0.47622717  0.20427280     0.09800
H3019       H  0.68565869  0.50507561  0.15236490     0.07800
Br3020     Br  0.69306987  0.53067536  0.19979491    -0.02800
C3021       C  0.51904690  0.36159107  0.32965941    -0.09400
C3022       C  0.52452546  0.35522978  0.30442824     0.06800
C3023       C  0.53743395  0.33222249  0.30060328    -0.03200
C3024       C  0.54008525  0.31484471  0.32037119    -0.07600
C3025       C  0.53209057  0.32019058  0.34509318     0.05900
C3026       C  0.52330440  0.34493695  0.34972512    -0.02700
Br3027     Br  0.51857310  0.35848383  0.38304833    -0.02400
H3028       H  0.51270189  0.38028137  0.33431857     0.09800
H3029       H  0.55006432  0.29768300  0.31632884     0.07800
Br3030     Br  0.55514131  0.32415692  0.27015852    -0.02800
C3031       C  0.56751028  0.44557383  0.28523801    -0.09400
C3032       C  0.56580506  0.42887552  0.26470833     0.06800
C3033       C  0.58474058  0.42916807  0.24631968    -0.03200
C3034       C  0.60417153  0.44692287  0.24784151    -0.07600
C3035       C  0.60521034  0.46437271  0.26761433     0.05900
C3036       C  0.58726317  0.46305482  0.28699314    -0.02700
Br3037     Br  0.58856645  0.48524564  0.31560642    -0.02400
H3038       H  0.55352712  0.44484547  0.30000997     0.09800
H3039       H  0.61890772  0.44667081  0.23388609     0.07800
Br3040     Br  0.58594394  0.40471519  0.21985482    -0.02800
C3041       C  0.51974260  0.39410494  0.19264647    -0.09400
C3042       C  0.50635197  0.38206478  0.21202267     0.06800
C3043       C  0.48388004  0.36910144  0.20544791    -0.03200
C3044       C  0.47535136  0.36872574  0.18030849    -0.07600
C3045       C  0.48901105  0.38037952  0.16090576     0.05900
C3046       C  0.51173319  0.39289347  0.16735793    -0.02700
Br3047     Br  0.53240290  0.40947031  0.14280349    -0.02400
H3048       H  0.53667466  0.40457372  0.19715209     0.09800
H3049       H  0.45809481  0.35869469  0.17581511     0.07800
Br3050     Br  0.46304552  0.35236420  0.22969473    -0.02800
C3051       C  0.37723589  0.51978873  0.32827157    -0.09400
C3052       C  0.37029451  0.51398845  0.30323464     0.06800
C3053       C  0.34721835  0.50073018  0.29970996    -0.03200
C3054       C  0.33058350  0.49749263  0.31989898    -0.07600
C3055       C  0.33641085  0.50591174  0.34444954     0.05900
C3056       C  0.36108768  0.51551990  0.34861068    -0.02700
Br3057     Br  0.37510034  0.52225737  0.38150590    -0.02400
H3058       H  0.39595523  0.52684889  0.33244850     0.09800
H3059       H  0.31348516  0.48710225  0.31620952     0.07800
Br3060     Br  0.33741828  0.48378985  0.26907189    -0.02800
C3061       C  0.43789306  0.44956285  0.26834620    -0.09400
C3062       C  0.44581173  0.47455140  0.26407734     0.06800
C3063       C  0.47205316  0.47921551  0.26228395    -0.03200
C3064       C  0.48921103  0.45935214  0.26467195    -0.07600
C3065       C  0.48117682  0.43465212  0.26950489     0.05900
C3066       C  0.45507910  0.42989443  0.27140262    -0.02700
Br3067     Br  0.44121617  0.39700759  0.27715868    -0.02400
H3068       H  0.41798405  0.44520000  0.26954429     0.09800
H3069       H  0.50918311  0.46337460  0.26329667     0.07800
Br3070     Br  0.48664474  0.51200328  0.25861148    -0.02800
C3071       C  0.40646024  0.51717171  0.19139883    -0.09400
C3072       C  0.39413896  0.52985151  0.21098417     0.06800
C3073       C  0.37953258  0.55130008  0.20489647    -0.03200
C3074       C  0.37718786  0.55907482  0.17974442    -0.07600
C3075       C  0.38927464  0.54617374  0.16018492     0.05900
C3076       C  0.40413038  0.52509434  0.16625309    -0.02700
Br3077     Br  0.42305086  0.50752110  0.14115389    -0.02400
H3078       H  0.41830413  0.50120620  0.19573198     0.09800
H3079       H  0.36583719  0.57539768  0.17544613     0.07800
Br3080     Br  0.36521131  0.57306569  0.22996325    -0.02800
C3081       C  0.53905777  0.66737212  0.32935917    -0.09400
C3082       C  0.53151768  0.67187285  0.30430574     0.06800
C3083       C  0.51807360  0.69439866  0.29957286    -0.03200
C3084       C  0.51607868  0.71284874  0.31843158    -0.07600
C3085       C  0.52571478  0.70907182  0.34298330     0.05900
C3086       C  0.53601834  0.68513021  0.34840643    -0.02700
Br3087     Br  0.54524210  0.67392216  0.38162332    -0.02400
H3088       H  0.54613694  0.64920760  0.33494549     0.09800
H3089       H  0.50561247  0.72954212  0.31383521     0.07800
Br3090     Br  0.49926845  0.70053199  0.26910634    -0.02800
C3091       C  0.47458746  0.59118197  0.24831690    -0.09400
C3092       C  0.48695982  0.59609258  0.27103830     0.06800
C3093       C  0.47891322  0.58375021  0.29314986    -0.03200
C3094       C  0.45930098  0.56612235  0.29184127    -0.07600
C3095       C  0.44706110  0.56080773  0.26887635     0.05900
C3096       C  0.45458877  0.57413225  0.24708988    -0.02700
Br3097     Br  0.43760721  0.57230577  0.21540209    -0.02400
H3098       H  0.48007608  0.60127212  0.23147404     0.09800
H3099       H  0.45391252  0.55615711  0.30879961     0.07800
Br3100     Br  0.49452050  0.58935241  0.32542432    -0.02800
C3101       C  0.61563155  0.57524295  0.26923277    -0.09400
C3102       C  0.60710348  0.55045869  0.26481198     0.06800
C3103       C  0.58071651  0.54602500  0.26472695    -0.03200
C3104       C  0.56414273  0.56580169  0.26902059    -0.07600
C3105       C  0.57272400  0.59031734  0.27342751     0.05900
C3106       C  0.59892898  0.59493696  0.27394967    -0.02700
Br3107     Br  0.61365981  0.62739735  0.28032805    -0.02400
H3108       H  0.63559802  0.57946276  0.26909845     0.09800
H3109       H  0.54409062  0.56190350  0.26897926     0.07800
Br3110     Br  0.56447970  0.51415083  0.26000494    -0.02800
C3111       C  0.52976605  0.62261689  0.19678286    -0.09400
C3112       C  0.54371841  0.63695812  0.21430988     0.06800
C3113       C  0.56589589  0.64914901  0.20598079    -0.03200
C3114       C  0.57317840  0.64728816  0.18072142    -0.07600
C3115       C  0.55897830  0.63341368  0.16311992     0.05900
C3116       C  0.53708328  0.62082694  0.17144015    -0.02700
Br3117     Br  0.51733915  0.59967748  0.14957533    -0.02400
H3118       H  0.51310199  0.61255001  0.20284905     0.09800
H3119       H  0.59001038  0.65715132  0.17469653     0.07800
Br3120     Br  0.58832222  0.66725587  0.22803970    -0.02800
loop_ 
_geom_bond_atom_site_label_1 
_geom_bond_atom_site_label_2 
_geom_bond_distance 
_geom_bond_site_symmetry_2 
_ccdc_geom_bond_type 
C1            C2   1.526       .  S
C1            C7   1.547       .  S
C1            C5   1.554       .  S
C1         C3082   1.534       .  S
C2            H9   1.087       .  S
C2            C3   1.355       .  D
C3            C4   1.538       .  S
C3         C3092   1.476       .  S
C4            C8   1.535       .  S
C4            C6   1.533       .  S
C4           H10   1.110       .  S
C5           H11   1.082       .  S
C5            C6   1.366       .  D
C6         C3105   1.485       .  S
C7           H12   1.083       .  S
C7            C8   1.372       .  D
C8         C3112   1.494       .  S
C13          C14   1.526       .  S
C13          C19   1.538       .  S
C13          C17   1.547       .  S
C13        C3052   1.539       .  S
C14          H21   1.086       .  S
C14          C15   1.365       .  D
C15          C16   1.553       .  S
C15        C3062   1.507       .  S
C16          C20   1.547       .  S
C16          C18   1.541       .  S
C16          H22   1.108       .  S
C17          H23   1.086       .  S
C17          C18   1.370       .  D
C18        C3095   1.489       .  S
C19          H24   1.082       .  S
C19          C20   1.366       .  D
C20        C3072   1.495       .  S
C25          C26   1.525       .  S
C25          C31   1.551       .  S
C25          C29   1.555       .  S
C25        C3022   1.546       .  S
C26          H33   1.087       .  S
C26          C27   1.356       .  D
C27          C28   1.543       .  S
C27        C3032   1.477       .  S
C28          C32   1.542       .  S
C28          C30   1.536       .  S
C28          H34   1.111       .  S
C29          H35   1.084       .  S
C29          C30   1.372       .  D
C30        C3065   1.494       .  S
C31          H36   1.084       .  S
C31          C32   1.376       .  D
C32        C3042   1.504       .  S
C37          C38   1.534       .  S
C37          C43   1.551       .  S
C37          C41   1.545       .  S
C37        C3005   1.554       .  S
C38          H45   1.086       .  S
C38          C39   1.367       .  D
C39          C40   1.541       .  S
C39        C3102   1.501       .  S
C40          C44   1.541       .  S
C40          C42   1.538       .  S
C40          H46   1.105       .  S
C41          H47   1.086       .  S
C41          C42   1.364       .  D
C42        C3035   1.475       .  S
C43          H48   1.079       .  S
C43          C44   1.377       .  D
C44        C3012   1.510       .  S
C49          C50   1.538       .  S
C49          C55   1.554       .  S
C49          C53   1.541       .  S
C49        C2962   1.554       .  S
C50          H57   1.086       .  S
C50          C51   1.366       .  D
C51          C52   1.549       .  S
C51        C2972   1.499       .  S
C52          C56   1.541       .  S
C52          C54   1.537       .  S
C52          H58   1.110       .  S
C53          H59   1.086       .  S
C53          C54   1.368       .  D
C54        C2985   1.485       .  S
C55          H60   1.083       .  S
C55          C56   1.369       .  D
C56        C2992   1.495       .  S
C61          C62   1.522       .  S
C61          C67   1.533       .  S
C61          C65   1.559       .  S
C61        C2935   1.540       .  S
C62          H69   1.087       .  S
C62          C63   1.360       .  D
C63          C64   1.557       .  S
C63        C2945   1.502       .  S
C64          C68   1.554       .  S
C64          C66   1.538       .  S
C64          H70   1.108       .  S
C65          H71   1.085       .  S
C65          C66   1.379       .  D
C66        C2975   1.506       .  S
C67          H72   1.085       .  S
C67          C68   1.364       .  D
C68        C2952   1.490       .  S
C73          C74   1.534       .  S
C73          C79   1.550       .  S
C73          C77   1.548       .  S
C73        C3055   1.544       .  S
C74          H81   1.086       .  S
C74          C75   1.357       .  D
C75          C76   1.539       .  S
C75        C2912   1.482       .  S
C76          C80   1.539       .  S
C76          C78   1.539       .  S
C76          H82   1.111       .  S
C77          H83   1.084       .  S
C77          C78   1.377       .  D
C78        C2942   1.500       .  S
C79          H84   1.082       .  S
C79          C80   1.366       .  D
C80        C2925   1.484       .  S
C85          C86   1.538       .  S
C85          C91   1.554       .  S
C85          C89   1.550       .  S
C85        C2892   1.554       .  S
C86          H93   1.084       .  S
C86          C87   1.365       .  D
C87          C88   1.539       .  S
C87        C2982   1.492       .  S
C88          C92   1.538       .  S
C88          C90   1.528       .  S
C88          H94   1.110       .  S
C89          H95   1.086       .  S
C89          C90   1.369       .  D
C90        C2915   1.485       .  S
C91          H96   1.082       .  S
C91          C92   1.373       .  D
C92        C2902   1.497       .  S
C97          C98   1.529       .  S
C97         C103   1.550       .  S
C97         C101   1.554       .  S
C97        C2855   1.546       .  S
C98         H105   1.087       .  S
C98          C99   1.356       .  D
C99         C100   1.538       .  S
C99        C2862   1.472       .  S
C100        C104   1.541       .  S
C100        C102   1.528       .  S
C100        H106   1.111       .  S
C101        H107   1.085       .  S
C101        C102   1.370       .  D
C102       C2875   1.484       .  S
C103        H108   1.085       .  S
C103        C104   1.376       .  D
C104       C2882   1.500       .  S
C109        C110   1.535       .  S
C109        C115   1.555       .  S
C109        C113   1.537       .  S
C109       C3025   1.548       .  S
C110        H117   1.086       .  S
C110        C111   1.372       .  D
C111        C112   1.546       .  S
C111       C2832   1.505       .  S
C112        C116   1.535       .  S
C112        C114   1.535       .  S
C112        H118   1.105       .  S
C113        H119   1.086       .  S
C113        C114   1.364       .  D
C114       C2865   1.470       .  S
C115        H120   1.083       .  S
C115        C116   1.370       .  D
C116       C2845   1.497       .  S
C121        C122   1.536       .  S
C121        C127   1.549       .  S
C121        C125   1.539       .  S
C121       C2932   1.543       .  S
C122        H129   1.085       .  S
C122        C123   1.363       .  D
C123        C124   1.545       .  S
C123       C2812   1.492       .  S
C124        C128   1.545       .  S
C124        C126   1.538       .  S
C124        H130   1.110       .  S
C125        H131   1.086       .  S
C125        C126   1.366       .  D
C126       C2835   1.485       .  S
C127        H132   1.084       .  S
C127        C128   1.373       .  D
C128       C2822   1.501       .  S
C133        C134   1.533       .  S
C133        C139   1.538       .  S
C133        C137   1.555       .  S
C133       C2792   1.545       .  S
C134        H141   1.085       .  S
C134        C135   1.360       .  D
C135        C136   1.544       .  S
C135       C2872   1.487       .  S
C136        C140   1.539       .  S
C136        C138   1.540       .  S
C136        H142   1.111       .  S
C137        H143   1.087       .  S
C137        C138   1.376       .  D
C138       C2815   1.497       .  S
C139        H144   1.085       .  S
C139        C140   1.368       .  D
C140       C2802   1.487       .  S
C145        C146   1.539       .  S
C145        C151   1.541       .  S
C145        C149   1.552       .  S
C145       C2752   1.547       .  S
C146        H153   1.086       .  S
C146        C147   1.356       .  D
C147        C148   1.539       .  S
C147       C2762   1.481       .  S
C148        C152   1.544       .  S
C148        C150   1.532       .  S
C148        H154   1.111       .  S
C149        H155   1.084       .  S
C149        C150   1.371       .  D
C150       C2775   1.483       .  S
C151        H156   1.084       .  S
C151        C152   1.374       .  D
C152       C2782   1.500       .  S
C157        C158   1.529       .  S
C157        C163   1.551       .  S
C157        C161   1.554       .  S
C157       C2895   1.559       .  S
C158        H165   1.086       .  S
C158        C159   1.368       .  D
C159        C160   1.546       .  S
C159       C2732   1.507       .  S
C160        C164   1.539       .  S
C160        C162   1.539       .  S
C160        H166   1.106       .  S
C161        H167   1.085       .  S
C161        C162   1.371       .  D
C162       C2765   1.488       .  S
C163        H168   1.083       .  S
C163        C164   1.376       .  D
C164       C2742   1.504       .  S
C169        C170   1.535       .  S
C169        C175   1.545       .  S
C169        C173   1.547       .  S
C169       C3085   1.540       .  S
C170        H177   1.086       .  S
C170        C171   1.362       .  D
C171        C172   1.548       .  S
C171       C2712   1.497       .  S
C172        C176   1.547       .  S
C172        C174   1.537       .  S
C172        H178   1.110       .  S
C173        H179   1.085       .  S
C173        C174   1.371       .  D
C174       C2735   1.493       .  S
C175        H180   1.083       .  S
C175        C176   1.366       .  D
C176       C2722   1.490       .  S
C181        C182   1.533       .  S
C181        C187   1.549       .  S
C181        C185   1.554       .  S
C181       C2692   1.552       .  S
C182        H189   1.087       .  S
C182        C183   1.361       .  D
C183        C184   1.535       .  S
C183       C2772   1.487       .  S
C184        C188   1.534       .  S
C184        C186   1.538       .  S
C184        H190   1.111       .  S
C185        H191   1.085       .  S
C185        C186   1.375       .  D
C186       C2715   1.493       .  S
C187        H192   1.082       .  S
C187        C188   1.370       .  D
C188       C2702   1.487       .  S
C193        C194   1.537       .  S
C193        C199   1.556       .  S
C193        C197   1.546       .  S
C193       C2652   1.549       .  S
C194        H201   1.087       .  S
C194        C195   1.362       .  D
C195        C196   1.540       .  S
C195       C2662   1.492       .  S
C196        C200   1.535       .  S
C196        C198   1.529       .  S
C196        H202   1.110       .  S
C197        H203   1.086       .  S
C197        C198   1.367       .  D
C198       C2675   1.480       .  S
C199        H204   1.084       .  S
C199        C200   1.377       .  D
C200       C2682   1.491       .  S
C205        C206   1.538       .  S
C205        C211   1.536       .  S
C205        C209   1.557       .  S
C205       C2755   1.547       .  S
C206        H213   1.086       .  S
C206        C207   1.353       .  D
C207        C208   1.549       .  S
C207       C2672   1.492       .  S
C208        C212   1.542       .  S
C208        C210   1.545       .  S
C208        H214   1.107       .  S
C209        H215   1.083       .  S
C209        C210   1.382       .  D
C210       C2632   1.507       .  S
C211        H216   1.086       .  S
C211        C212   1.369       .  D
C212       C2642   1.500       .  S
C217        C218   1.540       .  S
C217        C223   1.549       .  S
C217        C221   1.542       .  S
C217       C2965   1.555       .  S
C218        H225   1.084       .  S
C218        C219   1.377       .  D
C219        C220   1.544       .  S
C219       C2635   1.522       .  S
C220        C224   1.536       .  S
C220        C222   1.539       .  S
C220        H226   1.087       .  S
C221        H227   1.087       .  S
C221        C222   1.361       .  D
C222       C2612   1.471       .  S
C223        H228   1.079       .  S
C223        C224   1.375       .  D
C224       C2622   1.511       .  S
C229        C230   1.554       .  S
C229        C235   1.535       .  S
C229        C233   1.540       .  S
C229       C2795   1.544       .  S
C230        H237   1.085       .  S
C230        C231   1.373       .  D
C231        C232   1.537       .  S
C231       C2665   1.494       .  S
C232        C236   1.538       .  S
C232        C234   1.539       .  S
C232        H238   1.111       .  S
C233        H239   1.086       .  S
C233        C234   1.370       .  D
C234       C2602   1.485       .  S
C235        H240   1.086       .  S
C235        C236   1.357       .  D
C236       C2615   1.478       .  S
C241        C242   1.536       .  S
C241        C247   1.554       .  S
C241        C245   1.550       .  S
C241       C2695   1.554       .  S
C242        H249   1.087       .  S
C242        C243   1.363       .  D
C243        C244   1.543       .  S
C243       C2572   1.495       .  S
C244        C248   1.534       .  S
C244        C246   1.533       .  S
C244        H250   1.111       .  S
C245        H251   1.085       .  S
C245        C246   1.374       .  D
C246       C2582   1.487       .  S
C247        H252   1.076       .  S
C247        C248   1.369       .  D
C248       C2592   1.489       .  S
C253        C254   1.542       .  S
C253        C259   1.559       .  S
C253        C257   1.548       .  S
C253       C3002   1.554       .  S
C254        H261   1.086       .  S
C254        C255   1.363       .  D
C255        C256   1.530       .  S
C255       C2552   1.481       .  S
C256        C260   1.530       .  S
C256        C258   1.529       .  S
C256        H262   1.111       .  S
C257        H263   1.085       .  S
C257        C258   1.371       .  D
C258       C2575   1.483       .  S
C259        H264   1.080       .  S
C259        C260   1.373       .  D
C260       C2562   1.494       .  S
C265        C266   1.531       .  S
C265        C271   1.546       .  S
C265        C269   1.544       .  S
C265       C2852   1.549       .  S
C266        H273   1.086       .  S
C266        C267   1.365       .  D
C267        C268   1.545       .  S
C267       C2532   1.498       .  S
C268        C272   1.540       .  S
C268        C270   1.540       .  S
C268        H274   1.107       .  S
C269        H275   1.086       .  S
C269        C270   1.373       .  D
C270       C2555   1.496       .  S
C271        H276   1.084       .  S
C271        C272   1.368       .  D
C272       C2542   1.484       .  S
C277        C278   1.523       .  S
C277        C283   1.542       .  S
C277        C281   1.561       .  S
C277       C2655   1.548       .  S
C278        H285   1.087       .  S
C278        C279   1.358       .  D
C279        C280   1.546       .  S
C279       C2585   1.487       .  S
C280        C284   1.547       .  S
C280        C282   1.530       .  S
C280        H286   1.110       .  S
C281        H287   1.084       .  S
C281        C282   1.374       .  D
C282       C2535   1.492       .  S
C283        H288   1.081       .  S
C283        C284   1.373       .  D
C284       C2522   1.502       .  S
C289        C290   1.527   1_565  S
C289        C295   1.557       .  S
C289        C293   1.550       .  S
C289       C2482   1.554       .  S
C290        H297   1.087       .  S
C290        C291   1.353       .  D
C291        C292   1.541       .  S
C291       C2492   1.476       .  S
C292        C296   1.539   1_545  S
C292        C294   1.531   1_545  S
C292        H298   1.107       .  S
C293        H299   1.086       .  S
C293        C294   1.371       .  D
C294       C2505   1.483       .  S
C295        H300   1.082       .  S
C295        C296   1.384       .  D
C296       C2515   1.509       .  S
C301        C302   1.534   1_556  S
C301        C307   1.552       .  S
C301        C305   1.547       .  S
C301       C2452   1.547       .  S
C302        H309   1.086       .  S
C302        C303   1.361       .  D
C303        C304   1.545   1_554  S
C303       C2462   1.487       .  S
C304        C308   1.538       .  S
C304        C306   1.531       .  S
C304        H310   1.111       .  S
C305        H311   1.086       .  S
C305        C306   1.369       .  D
C306       C2495   1.482       .  S
C307        H312   1.081       .  S
C307        C308   1.373       .  D
C308       C2472   1.493       .  S
C313        C314   1.540   1_545  S
C313        C319   1.547       .  S
C313        C317   1.544       .  S
C313       C2422   1.543       .  S
C314        H321   1.086       .  S
C314        C315   1.360       .  D
C315        C316   1.539   1_565  S
C315       C2435   1.481       .  S
C316        C320   1.540       .  S
C316        C318   1.537       .  S
C316        H322   1.111       .  S
C317        H323   1.085       .  S
C317        C318   1.371       .  D
C318       C2465   1.490       .  S
C319        H324   1.081       .  S
C319        C320   1.366       .  D
C320       C2442   1.489       .  S
C325        C326   1.533   1_554  S
C325        C331   1.550       .  S
C325        C329   1.546       .  S
C325       C2405   1.547       .  S
C326        H333   1.086       .  S
C326        C327   1.361       .  D
C327        C328   1.537   1_556  S
C327       C2502   1.478       .  S
C328        C332   1.540       .  S
C328        C330   1.534       .  S
C328        H334   1.110       .  S
C329        H335   1.086       .  S
C329        C330   1.371       .  D
C330       C2432   1.493       .  S
C331        H336   1.083       .  S
C331        C332   1.372       .  D
C332       C2415   1.494       .  S
C337        C338   1.528   1_556  S
C337        C343   1.547       .  S
C337        C341   1.545       .  S
C337       C2402   1.545       .  S
C338        H345   1.087       .  S
C338        C339   1.357       .  D
C339        C340   1.542   1_554  S
C339       C2372   1.486       .  S
C340        C344   1.551       .  S
C340        C342   1.540       .  S
C340        H346   1.097       .  S
C341        H347   1.086       .  S
C341        C342   1.365       .  D
C342       C2385   1.479       .  S
C343        H348   1.082       .  S
C343        C344   1.385       .  D
C344       C2392   1.529       .  S
C349        C350   1.529       .  S
C349        C355   1.553       .  S
C349        C353   1.553   1_455  S
C349       C2345   1.548       .  S
C350        H357   1.086       .  S
C350        C351   1.354       .  D
C351        C352   1.537       .  S
C351       C2352   1.468       .  S
C352        C356   1.541       .  S
C352        C354   1.535   1_455  S
C352        H358   1.110       .  S
C353        H359   1.085       .  S
C353        C354   1.376       .  D
C354       C2375   1.503       .  S
C355        H360   1.082       .  S
C355        C356   1.373       .  D
C356       C2362   1.496       .  S
C361        C362   1.530   1_554  S
C361        C367   1.551       .  S
C361        C365   1.544       .  S
C361       C2312   1.550       .  S
C362        H369   1.085       .  S
C362        C363   1.361       .  D
C363        C364   1.545   1_556  S
C363       C2325   1.499       .  S
C364        C368   1.543       .  S
C364        C366   1.542       .  S
C364        H370   1.101       .  S
C365        H371   1.086       .  S
C365        C366   1.363       .  D
C366       C2355   1.475       .  S
C367        H372   1.081       .  S
C367        C368   1.383       .  D
C368       C2335   1.519       .  S
C373        C374   1.540   1_455  S
C373        C379   1.544       .  S
C373        C377   1.558       .  S
C373       C2295   1.558       .  S
C374        H381   1.086       .  S
C374        C375   1.358       .  D
C375        C376   1.538   1_655  S
C375       C2382   1.477       .  S
C376        C380   1.537       .  S
C376        C378   1.534       .  S
C376        H382   1.109       .  S
C377        H383   1.082       .  S
C377        C378   1.378       .  D
C378       C2322   1.498       .  S
C379        H384   1.086       .  S
C379        C380   1.373       .  D
C380       C2302   1.499       .  S
C385        C386   1.547       .  S
C385        C391   1.549       .  S
C385        C389   1.555   1_455  S
C385       C2292   1.565       .  S
C386        H393   1.082       .  S
C386        C387   1.360       .  D
C387        C388   1.538       .  S
C387       C2262   1.490       .  S
C388        C392   1.540       .  S
C388        C390   1.533   1_455  S
C388        H394   1.111       .  S
C389        H395   1.085       .  S
C389        C390   1.376       .  D
C390       C2275   1.492       .  S
C391        H396   1.085       .  S
C391        C392   1.377       .  D
C392       C2282   1.504       .  S
C397        C398   1.538       .  S
C397        C403   1.550       .  S
C397        C401   1.553   1_545  S
C397       C2235   1.553       .  S
C398        H405   1.086       .  S
C398        C399   1.364       .  D
C399        C400   1.543       .  S
C399       C2245   1.485       .  S
C400        C404   1.539       .  S
C400        C402   1.533   1_545  S
C400        H406   1.111       .  S
C401        H407   1.086       .  S
C401        C402   1.371       .  D
C402       C2265   1.490       .  S
C403        H408   1.078       .  S
C403        C404   1.367       .  D
C404       C2252   1.493   1_545  S
C409        C410   1.538   1_455  S
C409        C415   1.541       .  S
C409        C413   1.555       .  S
C409       C2205   1.540       .  S
C410        H417   1.084       .  S
C410        C411   1.362       .  D
C411        C412   1.543   1_655  S
C411       C2215   1.483       .  S
C412        C416   1.537       .  S
C412        C414   1.531       .  S
C412        H418   1.111       .  S
C413        H419   1.084       .  S
C413        C414   1.366       .  D
C414       C2242   1.483       .  S
C415        H420   1.086       .  S
C415        C416   1.370       .  D
C416       C2222   1.490       .  S
C421        C422   1.536   1_545  S
C421        C427   1.552       .  S
C421        C425   1.549       .  S
C421       C2485   1.557       .  S
C422        H429   1.086       .  S
C422        C423   1.368       .  D
C423        C424   1.543   1_565  S
C423       C2272   1.500       .  S
C424        C428   1.537       .  S
C424        C426   1.539       .  S
C424        H430   1.107       .  S
C425        H431   1.085       .  S
C425        C426   1.375       .  D
C426       C2212   1.498       .  S
C427        H432   1.081       .  S
C427        C428   1.368       .  D
C428       C2192   1.490       .  S
C433        C434   1.539   1_556  S
C433        C439   1.558       .  S
C433        C437   1.546       .  S
C433       C2315   1.553       .  S
C434        H441   1.087       .  S
C434        C435   1.360       .  D
C435        C436   1.534   1_554  S
C435       C2162   1.479       .  S
C436        C440   1.536       .  S
C436        C438   1.530       .  S
C436        H442   1.111       .  S
C437        H443   1.086       .  S
C437        C438   1.368       .  D
C438       C2172   1.476       .  S
C439        H444   1.079       .  S
C439        C440   1.377       .  D
C440       C2182   1.501       .  S
C445        C446   1.529   1_545  S
C445        C451   1.547       .  S
C445        C449   1.555       .  S
C445       C2232   1.553       .  S
C446        H453   1.087       .  S
C446        C447   1.356       .  D
C447        C448   1.545   1_565  S
C447       C2175   1.484       .  S
C448        C452   1.546       .  S
C448        C450   1.542       .  S
C448        H454   1.109       .  S
C449        H455   1.084       .  S
C449        C450   1.376       .  D
C450       C2142   1.499       .  S
C451        H456   1.082       .  S
C451        C452   1.374       .  D
C452       C2152   1.512       .  S
C457        C458   1.539       .  S
C457        C463   1.552       .  S
C457        C461   1.547   1_545  S
C457       C2112   1.555       .  S
C458        H465   1.086       .  S
C458        C459   1.365       .  D
C459        C460   1.543       .  S
C459       C2125   1.488       .  S
C460        C464   1.538       .  S
C460        C462   1.533   1_545  S
C460        H466   1.110       .  S
C461        H467   1.085       .  S
C461        C462   1.375       .  D
C462       C2165   1.489       .  S
C463        H468   1.082       .  S
C463        C464   1.366       .  D
C464       C2132   1.494   1_545  S
C469        C470   1.553       .  S
C469        C475   1.536   1_554  S
C469        C473   1.549       .  S
C469       C2092   1.560       .  S
C470        H477   1.086       .  S
C470        C471   1.375       .  D
C471        C472   1.540       .  S
C471       C2122   1.501       .  S
C472        C476   1.553   1_554  S
C472        C474   1.542       .  S
C472        H478   1.108       .  S
C473        H479   1.081       .  S
C473        C474   1.365       .  D
C474       C2105   1.493       .  S
C475        H480   1.086       .  S
C475        C476   1.368       .  D
C476       C2145   1.506       .  S
C481        C482   1.531       .  S
C481        C487   1.543       .  S
C481        C485   1.552       .  S
C481       C2202   1.542       .  S
C482        H489   1.082       .  S
C482        C483   1.353       .  D
C483        C484   1.543       .  S
C483       C2065   1.477       .  S
C484        C488   1.542       .  S
C484        C486   1.534       .  S
C484        H490   1.110       .  S
C485        H491   1.086   1_455  S
C485        C486   1.375       .  D
C486       C2075   1.484   1_455  S
C487        H492   1.086       .  S
C487        C488   1.372       .  D
C488       C2082   1.503       .  S
C493        C494   1.526       .  S
C493        C499   1.551   1_556  S
C493        C497   1.546   1_556  S
C493       C2455   1.548       .  S
C494        H501   1.086       .  S
C494        C495   1.357       .  D
C495        C496   1.539   1_556  S
C495       C2072   1.481       .  S
C496        C500   1.550       .  S
C496        C498   1.537       .  S
C496        H502   1.085       .  S
C497        H503   1.086       .  S
C497        C498   1.361       .  D
C498       C2042   1.489       .  S
C499        H504   1.080       .  S
C499        C500   1.393       .  D
C500       C2052   1.536       .  S
C505        C506   1.542   1_455  S
C505        C511   1.538       .  S
C505        C509   1.559       .  S
C505       C2012   1.551       .  S
C506        H513   1.085       .  S
C506        C507   1.363       .  D
C507        C508   1.539   1_655  S
C507       C2045   1.486       .  S
C508        C512   1.535       .  S
C508        C510   1.539       .  S
C508        H514   1.110       .  S
C509        H515   1.085       .  S
C509        C510   1.377       .  D
C510       C2022   1.500       .  S
C511        H516   1.087       .  S
C511        C512   1.366       .  D
C512       C2035   1.482       .  S
C517        C518   1.537       .  S
C517        C523   1.560   1_554  S
C517        C521   1.548   1_554  S
C517       C2095   1.560       .  S
C518        H525   1.085       .  S
C518        C519   1.364       .  D
C519        C520   1.546   1_554  S
C519       C2025   1.499       .  S
C520        C524   1.536       .  S
C520        C522   1.536       .  S
C520        H526   1.110       .  S
C521        H527   1.086       .  S
C521        C522   1.365       .  D
C522       C2062   1.480       .  S
C523        H528   1.081       .  S
C523        C524   1.381       .  D
C524       C2005   1.510       .  S
C529        C530   1.526       .  S
C529        C535   1.549       .  S
C529        C533   1.556   1_545  S
C529       C2425   1.543       .  S
C530        H537   1.087       .  S
C530        C531   1.355       .  D
C531        C532   1.544       .  S
C531       C1972   1.484       .  S
C532        C536   1.531       .  S
C532        C534   1.544   1_545  S
C532        H538   1.107       .  S
C533        H539   1.077       .  S
C533        C534   1.380       .  D
C534       C1982   1.511       .  S
C535        H540   1.085       .  S
C535        C536   1.366       .  D
C536       C1995   1.487   1_545  S
C541        C542   1.540       .  S
C541        C547   1.547       .  S
C541        C545   1.548   1_455  S
C541       C2015   1.552       .  S
C542        H549   1.082       .  S
C542        C543   1.362       .  D
C543        C544   1.540       .  S
C543       C1955   1.489       .  S
C544        C548   1.546       .  S
C544        C546   1.534   1_455  S
C544        H550   1.108       .  S
C545        H551   1.086       .  S
C545        C546   1.366       .  D
C546       C1975   1.477       .  S
C547        H552   1.086       .  S
C547        C548   1.381       .  D
C548       C1962   1.517       .  S
C553        C554   1.528   1_545  S
C553        C559   1.546       .  S
C553        C557   1.551       .  S
C553       C2115   1.550       .  S
C554        H561   1.087       .  S
C554        C555   1.356       .  D
C555        C556   1.544   1_565  S
C555       C1932   1.484       .  S
C556        C560   1.546       .  S
C556        C558   1.541       .  S
C556        H562   1.108       .  S
C557        H563   1.086       .  S
C557        C558   1.375       .  D
C558       C1952   1.503       .  S
C559        H564   1.081       .  S
C559        C560   1.374       .  D
C560       C1942   1.495       .  S
C565        C566   1.532       .  S
C565        C571   1.546       .  S
C565        C569   1.547       .  S
C565       C2342   1.547       .  S
C566        H573   1.085   1_455  S
C566        C567   1.374       .  D
C567        C568   1.548       .  S
C567       C1985   1.519   1_455  S
C568        C572   1.536       .  S
C568        C570   1.536       .  S
C568        H574   1.097       .  S
C569        H575   1.086       .  S
C569        C570   1.364       .  D
C570       C1935   1.475       .  S
C571        H576   1.083       .  S
C571        C572   1.369       .  D
C572       C1922   1.495       .  S
O577        C580   1.265       .  A
O577       Cd582   2.475       .  S
C578        O587   1.265       .  A
C578        O583   1.266       .  A
C578       C1902   1.479       .  S
O579        C585   1.270       .  A
O579       Cd582   2.470       .  S
C580        O588   1.268       .  A
C580       C2885   1.496       .  S
C581        O586   1.266       .  A
C581        O584   1.266       .  A
C581       C1892   1.497       .  S
Cd582       O589   2.425       .  S
Cd582       O588   2.519       .  S
Cd582       O587   2.433       .  S
Cd582       O583   2.447       .  S
Cd582       O586   2.460       .  S
Cd582       O584   2.506       .  S
C585        O589   1.266       .  A
C585       C1912   1.474       .  S
O590        C593   1.264       .  A
O590       Cd595   2.476       .  S
C591        O600   1.265       .  A
C591        O596   1.265       .  A
C591       C1885   1.477       .  S
O592        C598   1.269       .  A
O592       Cd595   2.454       .  S
C593        O601   1.269       .  A
C593       C2195   1.486       .  S
C594        O599   1.264       .  A
C594        O597   1.269       .  A
C594       C1872   1.505       .  S
Cd595       O602   2.419       .  S
Cd595       O601   2.490       .  S
Cd595       O600   2.428       .  S
Cd595       O596   2.419       .  S
Cd595       O599   2.469       .  S
Cd595       O597   2.521       .  S
C598        O602   1.266       .  A
C598       C1915   1.466       .  S
O603        C606   1.266       .  A
O603       Cd608   2.402       .  S
C604        O613   1.270       .  A
C604        O609   1.262       .  A
C604       C1992   1.479       .  S
O605        C611   1.263       .  A
O605       Cd608   2.437       .  S
C606        O614   1.265       .  A
C606       C1882   1.468   1_565  S
C607        O612   1.268       .  A
C607        O610   1.267       .  A
C607       C1862   1.466       .  S
Cd608       O615   2.486       .  S
Cd608       O614   2.425       .  S
Cd608       O613   2.488       .  S
Cd608       O609   2.446       .  S
Cd608       O612   2.455       .  S
Cd608       O610   2.406       .  S
C611        O615   1.268       .  A
C611       C1852   1.491       .  S
O616        C619   1.265       .  A
O616       Cd621   2.485       .  S
C617        O626   1.267       .  A
C617        O622   1.268       .  A
C617       C1865   1.470       .  S
O618        C624   1.267       .  A
O618       Cd621   2.437       .  S
C619        O627   1.268       .  A
C619       C1842   1.491       .  S
C620        O625   1.264       .  A
C620        O623   1.267       .  A
C620       C2705   1.495       .  S
Cd621       O628   2.438       .  S
Cd621       O627   2.495       .  S
Cd621       O626   2.431       .  S
Cd621       O622   2.453       .  S
Cd621       O625   2.484       .  S
Cd621       O623   2.507       .  S
C624        O628   1.265       .  A
C624       C1905   1.482       .  S
O629        C632   1.271       .  A
O629       Cd634   2.479       .  S
C630        O639   1.267       .  A
C630        O635   1.268       .  A
C630       C2512   1.489       .  S
O631        C637   1.269       .  A
O631       Cd634   2.458       .  S
C632        O640   1.262       .  A
C632       C1822   1.478       .  S
C633        O638   1.269       .  A
C633        O636   1.265       .  A
C633       C1832   1.466       .  S
Cd634       O641   2.468       .  S
Cd634       O640   2.421       .  S
Cd634       O639   2.487       .  S
Cd634       O635   2.482       .  S
Cd634       O638   2.474       .  S
Cd634       O636   2.402       .  S
C637        O641   1.265       .  A
C637       C1812   1.492       .  S
O642        C645   1.266       .  A
O642       Cd647   2.489       .  S
C643        O652   1.263       .  A
C643        O648   1.269       .  A
C643       C1802   1.466       .  S
O644        C650   1.271       .  A
O644       Cd647   2.471       .  S
C645        O653   1.269       .  A
C645       C2785   1.484       .  S
C646        O651   1.268       .  A
C646        O649   1.267       .  A
C646       C1895   1.495       .  S
Cd647       O654   2.403       .  S
Cd647       O653   2.469       .  S
Cd647       O652   2.419       .  S
Cd647       O648   2.432       .  S
Cd647       O651   2.484       .  S
Cd647       O649   2.467       .  S
C650        O654   1.265       .  A
C650       C1835   1.473       .  S
O655        C658   1.265       .  A
O655       Cd660   2.488       .  S
C656        O665   1.261       .  A
C656        O661   1.268       .  A
C656       C1805   1.468       .  S
O657        C663   1.268       .  A
O657       Cd660   2.482       .  S
C658        O666   1.269       .  A
C658       C2805   1.486       .  S
C659        O664   1.267       .  A
C659        O662   1.266       .  A
C659       C1782   1.489       .  S
Cd660       O667   2.422       .  S
Cd660       O666   2.488       .  S
Cd660       O665   2.422       .  S
Cd660       O661   2.461       .  S
Cd660       O664   2.455       .  S
Cd660       O662   2.494       .  S
C663        O667   1.265       .  A
C663       C1792   1.473       .  S
O668        C671   1.270       .  A
O668       Cd673   2.523       .  S
C669        O678   1.264       .  A
C669        O674   1.267       .  A
C669       C1825   1.467       .  S
O670        C676   1.267       .  A
O670       Cd673   2.481       .  S
C671        O679   1.262       .  A
C671       C2155   1.500       .  S
C672        O677   1.267       .  A
C672        O675   1.266       .  A
C672       C1772   1.498       .  S
Cd673       O680   2.429       .  S
Cd673       O679   2.487       .  S
Cd673       O678   2.438       .  S
Cd673       O674   2.452       .  S
Cd673       O677   2.496       .  S
Cd673       O675   2.478       .  S
C676        O680   1.265       .  A
C676       C1795   1.477       .  S
O681        C684   1.269       .  A
O681       Cd686   2.454       .  S
C682        O691   1.267       .  A
C682        O687   1.266       .  A
C682       C2445   1.498       .  S
O683        C689   1.266       .  A
O683       Cd686   2.479       .  S
C684        O692   1.262       .  A
C684       C1755   1.468       .  S
C685        O690   1.268       .  A
C685        O688   1.266       .  A
C685       C1762   1.472       .  S
Cd686       O693   2.475       .  S
Cd686       O692   2.426       .  S
Cd686       O691   2.497       .  S
Cd686       O687   2.491       .  S
Cd686       O690   2.467       .  S
Cd686       O688   2.422       .  S
C689        O693   1.266       .  A
C689       C1745   1.495       .  S
O694        C697   1.269       .  A
O694       Cd699   2.460       .  S
C695        O704   1.270       .  A
C695        O700   1.264       .  A
C695       C1845   1.506       .  S
O696        C702   1.264       .  A
O696       Cd699   2.487       .  S
C697        O705   1.267       .  A
C697       C1765   1.470       .  S
C698        O703   1.268       .  A
C698        O701   1.265       .  A
C698       C1735   1.480       .  S
Cd699       O706   2.536       .  S
Cd699       O705   2.409       .  S
Cd699       O704   2.524       .  S
Cd699       O700   2.488       .  S
Cd699       O703   2.423       .  S
Cd699       O701   2.442       .  S
C702        O706   1.270       .  A
C702       C2842   1.496       .  S
O707        C710   1.265       .  A
O707       Cd712   2.493       .  S
C708        O717   1.261       .  A
C708        O713   1.269       .  A
C708       C1752   1.467       .  S
O709        C715   1.267       .  A
O709       Cd712   2.456       .  S
C710        O718   1.267       .  A
C710       C2135   1.488       .  S
C711        O716   1.264       .  A
C711        O714   1.266       .  A
C711       C1715   1.492       .  S
Cd712       O719   2.401       .  S
Cd712       O718   2.490       .  S
Cd712       O717   2.422       .  S
Cd712       O713   2.474       .  S
Cd712       O716   2.447       .  S
Cd712       O714   2.469       .  S
C715        O719   1.266       .  A
C715       C1722   1.465       .  S
O720        C723   1.264       .  A
O720       Cd725   2.465       .  S
C721        O730   1.267       .  A
C721        O726   1.268       .  A
C721       C1725   1.465       .  S
O722        C728   1.264       .  A
O722       Cd725   2.422       .  S
C723        O731   1.269       .  A
C723       C1702   1.489       .  S
C724        O729   1.263       .  A
C724        O727   1.269       .  A
C724       C2725   1.488       .  S
Cd725       O732   2.461       .  S
Cd725       O731   2.461       .  S
Cd725       O730   2.402       .  S
Cd725       O726   2.445       .  S
Cd725       O729   2.466       .  S
Cd725       O727   2.497       .  S
C728        O732   1.268       .  A
C728       C1732   1.484       .  S
O733        C736   1.263       .  A
O733       Cd738   2.510       .  S
C734        O743   1.262       .  A
C734        O739   1.268       .  A
C734       C1682   1.477   1_565  S
O735        C741   1.267       .  A
O735       Cd738   2.472       .  S
C736        O744   1.268       .  A
C736       C2255   1.496       .  S
C737        O742   1.266       .  A
C737        O740   1.264       .  A
C737       C1672   1.495       .  S
Cd738       O745   2.452       .  S
Cd738       O744   2.502       .  S
Cd738       O743   2.439       .  S
Cd738       O739   2.432       .  S
Cd738       O742   2.491       .  S
Cd738       O740   2.502       .  S
C741        O745   1.267       .  A
C741       C1692   1.476       .  S
O746        C749   1.269       .  A
O746       Cd751   2.454       .  S
C747        O756   1.262       .  A
C747        O752   1.269       .  A
C747       C1695   1.480       .  S
O748        C754   1.270       .  A
O748       Cd751   2.457       .  S
C749        O757   1.267       .  A
C749       C1785   1.494       .  S
C750        O755   1.265       .  A
C750        O753   1.268       .  A
C750       C2745   1.491       .  S
Cd751       O758   2.423       .  S
Cd751       O757   2.478       .  S
Cd751       O756   2.417       .  S
Cd751       O752   2.510       .  S
Cd751       O755   2.457       .  S
Cd751       O753   2.489       .  S
C754        O758   1.263       .  A
C754       C1662   1.469       .  S
O759        C762   1.267       .  A
O759       Cd764   2.491       .  S
C760        O769   1.264       .  A
C760        O765   1.268       .  A
C760       C1705   1.486       .  S
O761        C767   1.259       .  A
O761       Cd764   2.427       .  S
C762        O770   1.263       .  A
C762       C1652   1.473       .  S
C763        O768   1.267       .  A
C763        O766   1.265       .  A
C763       C1665   1.469       .  S
Cd764       O771   2.516       .  S
Cd764       O770   2.402       .  S
Cd764       O769   2.460       .  S
Cd764       O765   2.492       .  S
Cd764       O768   2.442       .  S
Cd764       O766   2.430       .  S
C767        O771   1.270       .  A
C767       C2825   1.487       .  S
O772        C775   1.270       .  A
O772       Cd777   2.472       .  S
C773        O782   1.266       .  A
C773        O778   1.269       .  A
C773       C1642   1.497       .  S
O774        C780   1.267       .  A
O774       Cd777   2.489       .  S
C775        O783   1.264       .  A
C775       C1655   1.469       .  S
C776        O781   1.270       .  A
C776        O779   1.262       .  A
C776       C1685   1.462       .  S
Cd777       O784   2.462       .  S
Cd777       O783   2.399       .  S
Cd777       O782   2.489       .  S
Cd777       O778   2.485       .  S
Cd777       O781   2.465       .  S
Cd777       O779   2.410       .  S
C780        O784   1.267       .  A
C780       C1945   1.486       .  S
O785        C788   1.262       .  A
O785       Cd790   2.458       .  S
C786        O795   1.262       .  A
C786        O791   1.267       .  A
C786       C1625   1.467       .  S
O787        C793   1.269       .  A
O787       Cd790   2.492       .  S
C788        O796   1.270       .  A
C788       C2955   1.484       .  S
C789        O794   1.263       .  A
C789        O792   1.268       .  A
C789       C1615   1.495       .  S
Cd790       O797   2.396       .  S
Cd790       O796   2.505       .  S
Cd790       O795   2.425       .  S
Cd790       O791   2.450       .  S
Cd790       O794   2.457       .  S
Cd790       O792   2.532       .  S
C793        O797   1.264       .  A
C793       C1635   1.475       .  S
O798        C801   1.267       .  A
O798       Cd803   2.443       .  S
C799        O808   1.269       .  A
C799        O804   1.264       .  A
C799       C2225   1.499       .  S
O800        C806   1.267       .  A
O800       Cd803   2.482       .  S
C801        O809   1.265       .  A
C801       C1602   1.473       .  S
C802        O807   1.267       .  A
C802        O805   1.265       .  A
C802       C1632   1.469       .  S
Cd803       O810   2.498       .  S
Cd803       O809   2.441       .  S
Cd803       O808   2.514       .  S
Cd803       O804   2.464       .  S
Cd803       O807   2.454       .  S
Cd803       O805   2.436       .  S
C806        O810   1.266       .  A
C806       C1645   1.493       .  S
O811        C814   1.271   1_455  A
O811       Cd816   2.466   1_455  S
C812        O821   1.272       .  A
C812        O817   1.265   1_655  A
C812       C1965   1.506       .  S
O813        C819   1.271       .  A
O813       Cd816   2.480       .  S
C814        O822   1.262       .  A
C814       C1605   1.470   1_655  S
C815        O820   1.269       .  A
C815        O818   1.264       .  A
C815       C1592   1.465       .  S
Cd816       O823   2.501       .  S
Cd816       O822   2.411       .  S
Cd816       O821   2.528       .  S
Cd816       O817   2.490   1_655  S
Cd816       O820   2.472       .  S
Cd816       O818   2.410       .  S
C819        O823   1.268       .  A
C819       C1875   1.504       .  S
O824        C827   1.269       .  A
O824       Cd829   2.474       .  S
C825        O834   1.265       .  A
C825        O830   1.268       .  A
C825       C1595   1.478       .  S
O826        C832   1.270       .  A
O826       Cd829   2.464       .  S
C827        O835   1.265       .  A
C827       C1582   1.492   1_655  S
C828        O833   1.266       .  A
C828        O831   1.268       .  A
C828       C2545   1.481       .  S
Cd829       O836   2.419       .  S
Cd829       O835   2.443       .  S
Cd829       O834   2.396       .  S
Cd829       O830   2.474       .  S
Cd829       O833   2.476       .  S
Cd829       O831   2.471       .  S
C832        O836   1.262       .  A
C832       C1622   1.468   1_655  S
O837        C840   1.263       .  A
O837       Cd842   2.469       .  S
C838        O847   1.262       .  A
C838        O843   1.267       .  A
C838       C1562   1.463       .  S
O839        C845   1.268       .  A
O839       Cd842   2.479       .  S
C840        O848   1.270       .  A
C840       C2995   1.505       .  S
C841        O846   1.268       .  A
C841        O844   1.266       .  A
C841       C1552   1.500       .  S
Cd842       O849   2.405       .  S
Cd842       O848   2.543       .  S
Cd842       O847   2.428       .  S
Cd842       O843   2.466       .  S
Cd842       O846   2.485       .  S
Cd842       O844   2.478       .  S
C845        O849   1.264       .  A
C845       C1572   1.468       .  S
O850        C853   1.264       .  A
O850       Cd855   2.471       .  S
C851        O860   1.268       .  A
C851        O856   1.263       .  A
C851       C1542   1.477       .  S
O852        C858   1.270       .  A
O852       Cd855   2.477       .  S
C853        O861   1.273       .  A
C853       C2305   1.503       .  S
C854        O859   1.265       .  A
C854        O857   1.270       .  A
C854       C1535   1.497       .  S
Cd855       O862   2.413       .  S
Cd855       O861   2.552       .  S
Cd855       O860   2.443       .  S
Cd855       O856   2.408       .  S
Cd855       O859   2.487       .  S
Cd855       O857   2.501       .  S
C858        O862   1.267       .  A
C858       C1575   1.474       .  S
O863        C866   1.264       .  A
O863       Cd868   2.484       .  S
C864        O873   1.263       .  A
C864        O869   1.267       .  A
C864       C1545   1.472   1_655  S
O865        C871   1.269       .  A
O865       Cd868   2.455       .  S
C866        O874   1.270       .  A
C866       C2085   1.499       .  S
C867        O872   1.264       .  A
C867        O870   1.269       .  A
C867       C1512   1.500       .  S
Cd868       O875   2.397       .  S
Cd868       O874   2.522       .  S
Cd868       O873   2.420       .  S
Cd868       O869   2.426       .  S
Cd868       O872   2.459       .  S
Cd868       O870   2.524       .  S
C871        O875   1.266       .  A
C871       C1522   1.462       .  S
O876        C879   1.264       .  A
O876       Cd881   2.466       .  S
C877        O886   1.263       .  A
C877        O882   1.267       .  A
C877       C1565   1.469   1_655  S
O878        C884   1.267       .  A
O878       Cd881   2.460       .  S
C879        O887   1.268       .  A
C879       C2525   1.484       .  S
C880        O885   1.266       .  A
C880        O883   1.265       .  A
C880       C1612   1.489   1_655  S
Cd881       O888   2.416       .  S
Cd881       O887   2.481       .  S
Cd881       O886   2.426       .  S
Cd881       O882   2.455       .  S
Cd881       O885   2.487       .  S
Cd881       O883   2.460       .  S
C884        O888   1.266       .  A
C884       C1525   1.471       .  S
O889        C892   1.265   1_655  A
O889       Cd894   2.429       .  S
C890        O899   1.267       .  A
C890        O895   1.261       .  A
C890       C2285   1.487       .  S
O891        C897   1.263       .  A
O891       Cd894   2.469       .  S
C892        O900   1.263   1_455  A
C892       C1492   1.468       .  S
C893        O898   1.268       .  A
C893        O896   1.267       .  A
C893       C1502   1.472       .  S
Cd894       O901   2.488       .  S
Cd894       O900   2.437       .  S
Cd894       O899   2.498       .  S
Cd894       O895   2.476       .  S
Cd894       O898   2.461       .  S
Cd894       O896   2.425       .  S
C897        O901   1.267       .  A
C897       C1855   1.488       .  S
O902        C905   1.264       .  A
O902       Cd907   2.483       .  S
C903        O912   1.264       .  A
C903        O908   1.265       .  A
C903       C1482   1.473   1_655  S
O904        C910   1.269       .  A
O904       Cd907   2.467       .  S
C905        O913   1.269       .  A
C905       C2595   1.493       .  S
C906        O911   1.266       .  A
C906        O909   1.267       .  A
C906       C1555   1.498       .  S
Cd907       O914   2.428       .  S
Cd907       O913   2.510       .  S
Cd907       O912   2.466       .  S
Cd907       O908   2.427       .  S
Cd907       O911   2.482       .  S
Cd907       O909   2.488       .  S
C910        O914   1.267       .  A
C910       C1505   1.477       .  S
O915        C918   1.263       .  A
O915       Cd920   2.470       .  S
C916        O925   1.266       .  A
C916        O921   1.265       .  A
C916       C1485   1.480       .  S
O917        C923   1.268       .  A
O917       Cd920   2.462       .  S
C918        O926   1.269       .  A
C918       C2905   1.479       .  S
C919        O924   1.266       .  A
C919        O922   1.268       .  A
C919       C1462   1.497       .  S
Cd920       O927   2.424       .  S
Cd920       O926   2.497       .  S
Cd920       O925   2.437       .  S
Cd920       O921   2.428       .  S
Cd920       O924   2.490       .  S
Cd920       O922   2.490       .  S
C923        O927   1.266       .  A
C923       C1472   1.473       .  S
O928        C931   1.263       .  A
O928       Cd933   2.420       .  S
C929        O938   1.272       .  A
C929        O934   1.263       .  A
C929       C1925   1.489       .  S
O930        C936   1.266       .  A
O930       Cd933   2.457       .  S
C931        O939   1.266       .  A
C931       C1495   1.476       .  S
C932        O937   1.269       .  A
C932        O935   1.265       .  A
C932       C1475   1.466       .  S
Cd933       O940   2.486       .  S
Cd933       O939   2.450       .  S
Cd933       O938   2.506       .  S
Cd933       O934   2.441       .  S
Cd933       O937   2.470       .  S
Cd933       O935   2.402       .  S
C936        O940   1.269       .  A
C936       C1675   1.493       .  S
O941        C944   1.267       .  A
O941       Cd946   2.475       .  S
C942        O951   1.267       .  A
C942        O947   1.271       .  A
C942       C1452   1.474       .  S
O943        C949   1.266       .  A
O943       Cd946   2.419       .  S
C944        O952   1.266       .  A
C944       C1432   1.500       .  S
C945        O950   1.265       .  A
C945        O948   1.269       .  A
C945       C2365   1.488       .  S
Cd946       O953   2.401       .  S
Cd946       O952   2.493       .  S
Cd946       O951   2.428       .  S
Cd946       O947   2.464       .  S
Cd946       O950   2.492       .  S
Cd946       O948   2.479       .  S
C949        O953   1.262       .  A
C949       C1442   1.457   1_655  S
O954        C957   1.268       .  A
O954       Cd959   2.508       .  S
C955        O964   1.265       .  A
C955        O960   1.270       .  A
C955       C1455   1.472       .  S
O956        C962   1.264       .  A
O956       Cd959   2.434       .  S
C957        O965   1.266       .  A
C957       C1465   1.503   1_655  S
C958        O963   1.263       .  A
C958        O961   1.271       .  A
C958       C2565   1.499       .  S
Cd959       O966   2.443       .  S
Cd959       O965   2.469       .  S
Cd959       O964   2.414       .  S
Cd959       O960   2.480       .  S
Cd959       O963   2.464       .  S
Cd959       O961   2.553       .  S
C962        O966   1.266       .  A
C962       C1422   1.479   1_655  S
O967        C970   1.266       .  A
O967       Cd972   2.480       .  S
C968        O977   1.264       .  A
C968        O973   1.271       .  A
C968       C1412   1.470       .  S
O969        C975   1.264       .  A
O969       Cd972   2.392       .  S
C970        O978   1.268       .  A
C970       C1402   1.496       .  S
C971        O976   1.263       .  A
C971        O974   1.270       .  A
C971       C2032   1.493       .  S
Cd972       O979   2.423       .  S
Cd972       O978   2.502       .  S
Cd972       O977   2.396       .  S
Cd972       O973   2.462       .  S
Cd972       O976   2.435       .  S
Cd972       O974   2.502       .  S
C975        O979   1.265       .  A
C975       C1445   1.466       .  S
O980        C983   1.263       .  A
O980       Cd985   2.476       .  S
C981        O990   1.266       .  A
C981        O986   1.266       .  A
C981       C1425   1.476       .  S
O982        C988   1.268       .  A
O982       Cd985   2.459       .  S
C983        O991   1.269       .  A
C983       C2922   1.491       .  S
C984        O989   1.264       .  A
C984        O987   1.268       .  A
C984       C1585   1.494       .  S
Cd985       O992   2.418       .  S
Cd985       O991   2.504       .  S
Cd985       O990   2.442       .  S
Cd985       O986   2.430       .  S
Cd985       O989   2.457       .  S
Cd985       O987   2.471       .  S
C988        O992   1.267       .  A
C988       C1415   1.463       .  S
O993        C996   1.263       .  A
O993       Cd998   2.454       .  S
C994       O1003   1.265       .  A
C994        O999   1.269       .  A
C994       C1392   1.462       .  S
O995       C1001   1.265       .  A
O995       Cd998   2.434       .  S
C996       O1004   1.270       .  A
C996       C1405   1.497       .  S
C997       O1002   1.262       .  A
C997       O1000   1.272       .  A
C997       C2332   1.493       .  S
Cd998      O1005   2.422       .  S
Cd998      O1004   2.499       .  S
Cd998      O1003   2.397       .  S
Cd998       O999   2.468       .  S
Cd998      O1002   2.455       .  S
Cd998      O1000   2.523       .  S
C1001      O1005   1.264       .  A
C1001      C1385   1.470       .  S
O1006      C1009   1.264       .  A
O1006     Cd1011   2.401       .  S
C1007      O1016   1.266       .  A
C1007      O1012   1.268       .  A
C1007      C1372   1.479       .  S
O1008      C1014   1.273       .  A
O1008     Cd1011   2.538       .  S
C1009      O1017   1.268       .  A
C1009      C1395   1.467       .  S
C1010      O1015   1.269       .  A
C1010      O1013   1.264       .  A
C1010      C3075   1.486       .  S
Cd1011     O1018   2.448       .  S
Cd1011     O1017   2.460       .  S
Cd1011     O1016   2.407       .  S
Cd1011     O1012   2.443       .  S
Cd1011     O1015   2.502       .  S
Cd1011     O1013   2.472       .  S
C1014      O1018   1.261       .  A
C1014      C1362   1.493       .  S
O1019      C1022   1.267       .  A
O1019     Cd1024   2.442       .  S
C1020      O1029   1.273       .  A
C1020      O1025   1.263       .  A
C1020      C2002   1.502       .  S
O1021      C1027   1.267       .  A
O1021     Cd1024   2.492       .  S
C1022      O1030   1.262       .  A
C1022      C1382   1.471       .  S
C1023      O1028   1.271       .  A
C1023      O1026   1.264       .  A
C1023      C1352   1.468       .  S
Cd1024     O1031   2.508       .  S
Cd1024     O1030   2.414       .  S
Cd1024     O1029   2.526       .  S
Cd1024     O1025   2.467       .  S
Cd1024     O1028   2.498       .  S
Cd1024     O1026   2.385       .  S
C1027      O1031   1.268       .  A
C1027      C1532   1.505       .  S
O1032      C1035   1.267       .  A
O1032     Cd1037   2.470       .  S
C1033      O1042   1.266       .  A
C1033      O1038   1.269       .  A
C1033      C1355   1.468       .  S
O1034      C1040   1.266       .  A
O1034     Cd1037   2.421       .  S
C1035      O1043   1.268       .  A
C1035      C1342   1.495       .  S
C1036      O1041   1.263       .  A
C1036      O1039   1.272       .  A
C1036      C2625   1.495       .  S
Cd1037     O1044   2.465       .  S
Cd1037     O1043   2.487       .  S
Cd1037     O1042   2.415       .  S
Cd1037     O1038   2.474       .  S
Cd1037     O1041   2.456       .  S
Cd1037     O1039   2.516       .  S
C1040      O1044   1.265       .  A
C1040      C1375   1.477       .  S
O1045      C1048   1.265       .  A
O1045     Cd1050   2.436       .  S
C1046      O1055   1.268       .  A
C1046      O1051   1.264       .  A
C1046      C3115   1.487       .  S
O1047      C1053   1.266       .  A
O1047     Cd1050   2.478       .  S
C1048      O1056   1.265       .  A
C1048      C1325   1.479       .  S
C1049      O1054   1.269       .  A
C1049      O1052   1.267       .  A
C1049      C1332   1.469       .  S
Cd1050     O1057   2.498       .  S
Cd1050     O1056   2.425       .  S
Cd1050     O1055   2.486       .  S
Cd1050     O1051   2.493       .  S
Cd1050     O1054   2.462       .  S
Cd1050     O1052   2.423       .  S
C1053      O1057   1.266       .  A
C1053      C1312   1.498       .  S
O1058      C1061   1.265       .  A
O1058     Cd1063   2.479       .  S
C1059      O1068   1.266       .  A
C1059      O1064   1.265       .  A
C1059      C1302   1.473       .  S
O1060      C1066   1.269       .  A
O1060     Cd1063   2.466       .  S
C1061      O1069   1.269       .  A
C1061      C2412   1.487       .  S
C1062      O1067   1.264       .  A
C1062      O1065   1.268       .  A
C1062      C1712   1.494       .  S
Cd1063     O1070   2.405       .  S
Cd1063     O1069   2.489       .  S
Cd1063     O1068   2.429       .  S
Cd1063     O1064   2.420       .  S
Cd1063     O1067   2.447       .  S
Cd1063     O1065   2.494       .  S
C1066      O1070   1.267       .  A
C1066      C1335   1.471       .  S
O1071      C1074   1.263       .  A
O1071     Cd1076   2.437       .  S
C1072      O1081   1.267       .  A
C1072      O1077   1.265       .  A
C1072      C1305   1.462       .  S
O1073      C1079   1.270       .  A
O1073     Cd1076   2.464       .  S
C1074      O1082   1.271       .  A
C1074      C2185   1.488       .  S
C1075      O1080   1.264       .  A
C1075      O1078   1.269       .  A
C1075      C1815   1.496       .  S
Cd1076     O1083   2.411       .  S
Cd1076     O1082   2.511       .  S
Cd1076     O1081   2.426       .  S
Cd1076     O1077   2.393       .  S
Cd1076     O1080   2.458       .  S
Cd1076     O1078   2.485       .  S
C1079      O1083   1.266       .  A
C1079      C1292   1.466       .  S
O1084      C1087   1.262       .  A
O1084     Cd1089   2.453       .  S
C1085      O1094   1.265       .  A
C1085      O1090   1.268       .  A
C1085      C1295   1.467       .  S
O1086      C1092   1.268       .  A
O1086     Cd1089   2.405       .  S
C1087      O1095   1.275       .  A
C1087      C1365   1.497       .  S
C1088      O1093   1.265       .  A
C1088      O1091   1.273       .  A
C1088      C2645   1.501       .  S
Cd1089     O1096   2.422       .  S
Cd1089     O1095   2.537       .  S
Cd1089     O1094   2.424       .  S
Cd1089     O1090   2.462       .  S
Cd1089     O1093   2.446       .  S
Cd1089     O1091   2.527       .  S
C1092      O1096   1.267       .  A
C1092      C1322   1.472       .  S
O1097      C1100   1.262       .  A
O1097     Cd1102   2.448       .  S
C1098      O1107   1.264       .  A
C1098      O1103   1.266       .  A
C1098      C1272   1.472       .  S
O1099      C1105   1.268       .  A
O1099     Cd1102   2.487       .  S
C1100      O1108   1.271       .  A
C1100      C2395   1.493       .  S
C1101      O1106   1.266       .  A
C1101      O1104   1.267       .  A
C1101      C1515   1.497       .  S
Cd1102     O1109   2.407       .  S
Cd1102     O1108   2.529       .  S
Cd1102     O1107   2.455       .  S
Cd1102     O1103   2.444       .  S
Cd1102     O1106   2.469       .  S
Cd1102     O1104   2.485       .  S
C1105      O1109   1.264       .  A
C1105      C1282   1.469       .  S
O1110      C1113   1.264       .  A
O1110     Cd1115   2.465       .  S
C1111      O1120   1.265       .  A
C1111      O1116   1.267       .  A
C1111      C1262   1.473       .  S
O1112      C1118   1.268       .  A
O1112     Cd1115   2.486       .  S
C1113      O1121   1.269       .  A
C1113      C2685   1.497       .  S
C1114      O1119   1.266       .  A
C1114      O1117   1.267       .  A
C1114      C1315   1.500       .  S
Cd1115     O1122   2.412       .  S
Cd1115     O1121   2.511       .  S
Cd1115     O1120   2.447       .  S
Cd1115     O1116   2.449       .  S
Cd1115     O1119   2.479       .  S
Cd1115     O1117   2.487       .  S
C1118      O1122   1.265       .  A
C1118      C1285   1.473       .  S
O1123      C1126   1.264       .  A
O1123     Cd1128   2.466       .  S
C1124      O1133   1.264       .  A
C1124      O1129   1.268       .  A
C1124      C1265   1.470       .  S
O1125      C1131   1.267       .  A
O1125     Cd1128   2.485       .  S
C1126      O1134   1.269       .  A
C1126      C3015   1.495       .  S
C1127      O1132   1.269       .  A
C1127      O1130   1.265       .  A
C1127      C1245   1.497       .  S
Cd1128     O1135   2.406       .  S
Cd1128     O1134   2.512       .  S
Cd1128     O1133   2.453       .  S
Cd1128     O1129   2.452       .  S
Cd1128     O1132   2.484       .  S
Cd1128     O1130   2.465       .  S
C1131      O1135   1.264       .  A
C1131      C1252   1.471       .  S
O1136      C1139   1.263       .  A
O1136     Cd1141   2.460       .  S
C1137      O1146   1.264       .  A
C1137      O1142   1.267       .  A
C1137      C1275   1.475       .  S
O1138      C1144   1.268       .  A
O1138     Cd1141   2.502       .  S
C1139      O1147   1.270       .  A
C1139      C2055   1.486       .  S
C1140      O1145   1.268       .  A
C1140      O1143   1.268       .  A
C1140      C1435   1.494       .  S
Cd1141     O1148   2.417       .  S
Cd1141     O1147   2.503       .  S
Cd1141     O1146   2.445       .  S
Cd1141     O1142   2.459       .  S
Cd1141     O1145   2.465       .  S
Cd1141     O1143   2.506       .  S
C1144      O1148   1.264       .  A
C1144      C1255   1.476       .  S
O1149      C1152   1.262       .  A
O1149     Cd1154   2.447       .  S
C1150      O1159   1.264       .  A
C1150      O1155   1.265       .  A
C1150      C1222   1.473       .  S
O1151      C1157   1.269       .  A
O1151     Cd1154   2.466       .  S
C1152      O1160   1.270       .  A
C1152      C2475   1.488       .  S
C1153      O1158   1.262       .  A
C1153      O1156   1.270       .  A
C1153      C1775   1.499       .  S
Cd1154     O1161   2.427       .  S
Cd1154     O1160   2.509       .  S
Cd1154     O1159   2.412       .  S
Cd1154     O1155   2.423       .  S
Cd1154     O1158   2.442       .  S
Cd1154     O1156   2.525       .  S
C1157      O1161   1.266       .  A
C1157      C1232   1.470       .  S
O1162      C1165   1.267       .  A
O1162     Cd1167   2.481       .  S
C1163      O1172   1.267       .  A
C1163      O1168   1.269       .  A
C1163      C1235   1.475       .  S
O1164      C1170   1.265       .  A
O1164     Cd1167   2.417       .  S
C1165      O1173   1.266       .  A
C1165      C1242   1.493       .  S
C1166      O1171   1.265       .  A
C1166      O1169   1.267       .  A
C1166      C2605   1.497       .  S
Cd1167     O1174   2.450       .  S
Cd1167     O1173   2.474       .  S
Cd1167     O1172   2.418       .  S
Cd1167     O1168   2.460       .  S
Cd1167     O1171   2.479       .  S
Cd1167     O1169   2.497       .  S
C1170      O1174   1.265       .  A
C1170      C1215   1.463       .  S
O1175      C1178   1.262       .  A
O1175     Cd1180   2.491       .  S
C1176      O1185   1.264       .  A
C1176      O1181   1.265       .  A
C1176      C1212   1.471       .  S
O1177      C1183   1.268       .  A
O1177     Cd1180   2.488       .  S
C1178      O1186   1.270       .  A
C1178      C3045   1.496       .  S
C1179      O1184   1.268       .  A
C1179      O1182   1.265       .  A
C1179      C1345   1.499       .  S
Cd1180     O1187   2.427       .  S
Cd1180     O1186   2.528       .  S
Cd1180     O1185   2.421       .  S
Cd1180     O1181   2.425       .  S
Cd1180     O1184   2.503       .  S
Cd1180     O1182   2.482       .  S
C1183      O1187   1.265       .  A
C1183      C1202   1.477       .  S
O1188      C1191   1.266       .  A
O1188     Cd1193   2.468       .  S
C1189      O1198   1.268       .  A
C1189      O1194   1.268       .  A
C1189      C1205   1.482       .  S
O1190      C1196   1.264       .  A
O1190     Cd1193   2.428       .  S
C1191      O1199   1.266       .  A
C1191      C1742   1.494       .  S
C1192      O1197   1.263       .  A
C1192      O1195   1.270       .  A
C1192      C2102   1.488       .  S
Cd1193     O1200   2.416       .  S
Cd1193     O1199   2.496       .  S
Cd1193     O1198   2.444       .  S
Cd1193     O1194   2.452       .  S
Cd1193     O1197   2.463       .  S
Cd1193     O1195   2.494       .  S
C1196      O1200   1.265       .  A
C1196      C1225   1.476       .  S
C1201      C1202   1.402       .  A
C1201      C1206   1.398       .  A
C1201      H1208   1.083       .  S
C1202      C1203   1.411       .  A
C1203      C1204   1.401       .  A
C1203     Br1210   1.920       .  S
C1204      C1205   1.407       .  A
C1204      H1209   1.083       .  S
C1205      C1206   1.413       .  A
C1206     Br1207   1.921       .  S
C1211      C1212   1.408       .  A
C1211      C1216   1.395   1_554  A
C1211      H1218   1.084       .  S
C1212      C1213   1.410       .  A
C1213      C1214   1.393   1_554  A
C1213     Br1220   1.923       .  S
C1214      C1215   1.403       .  A
C1214      H1219   1.085       .  S
C1215      C1216   1.404       .  A
C1216     Br1217   1.918       .  S
C1221      C1222   1.404       .  A
C1221      C1226   1.394       .  A
C1221      H1228   1.084       .  S
C1222      C1223   1.410       .  A
C1223      C1224   1.393   1_556  A
C1223     Br1230   1.923       .  S
C1224      C1225   1.405       .  A
C1224      H1229   1.083       .  S
C1225      C1226   1.415   1_554  A
C1226     Br1227   1.924   1_556  S
C1231      C1232   1.403       .  A
C1231      C1236   1.400       .  A
C1231      H1238   1.082       .  S
C1232      C1233   1.408       .  A
C1233      C1234   1.397       .  A
C1233     Br1240   1.921       .  S
C1234      C1235   1.404       .  A
C1234      H1239   1.083       .  S
C1235      C1236   1.411       .  A
C1236     Br1237   1.920       .  S
C1241      C1242   1.405       .  A
C1241      C1246   1.404       .  A
C1241      H1248   1.083       .  S
C1242      C1243   1.416       .  A
C1243      C1244   1.402   1_556  A
C1243     Br1250   1.922       .  S
C1244      C1245   1.407       .  A
C1244      H1249   1.085       .  S
C1245      C1246   1.418   1_554  A
C1246     Br1247   1.921   1_556  S
C1251      C1252   1.404       .  A
C1251      C1256   1.398       .  A
C1251      H1258   1.083       .  S
C1252      C1253   1.408       .  A
C1253      C1254   1.398       .  A
C1253     Br1260   1.921       .  S
C1254      C1255   1.405       .  A
C1254      H1259   1.083       .  S
C1255      C1256   1.409       .  A
C1256     Br1257   1.919       .  S
C1261      C1262   1.406       .  A
C1261      C1266   1.398   1_556  A
C1261      H1268   1.083       .  S
C1262      C1263   1.408       .  A
C1263      C1264   1.398       .  A
C1263     Br1270   1.920       .  S
C1264      C1265   1.404   1_556  A
C1264      H1269   1.084       .  S
C1265      C1266   1.405       .  A
C1266     Br1267   1.919       .  S
C1271      C1272   1.405       .  A
C1271      C1276   1.399       .  A
C1271      H1278   1.085       .  S
C1272      C1273   1.406   1_556  A
C1273      C1274   1.398       .  A
C1273     Br1280   1.920       .  S
C1274      C1275   1.407       .  A
C1274      H1279   1.082       .  S
C1275      C1276   1.408   1_554  A
C1276     Br1277   1.920       .  S
C1281      C1282   1.401       .  A
C1281      C1286   1.397       .  A
C1281      H1288   1.083       .  S
C1282      C1283   1.408       .  A
C1283      C1284   1.398       .  A
C1283     Br1290   1.919       .  S
C1284      C1285   1.403       .  A
C1284      H1289   1.082       .  S
C1285      C1286   1.411       .  A
C1286     Br1287   1.921       .  S
C1291      C1292   1.402       .  A
C1291      C1296   1.398       .  A
C1291      H1298   1.084       .  S
C1292      C1293   1.407       .  A
C1293      C1294   1.396       .  A
C1293     Br1300   1.918       .  S
C1294      C1295   1.401       .  A
C1294      H1299   1.084       .  S
C1295      C1296   1.409       .  A
C1296     Br1297   1.920       .  S
C1301      C1302   1.409       .  A
C1301      C1306   1.396       .  A
C1301      H1308   1.084       .  S
C1302      C1303   1.411   1_554  A
C1303      C1304   1.391       .  A
C1303     Br1310   1.921       .  S
C1304      C1305   1.403       .  A
C1304      H1309   1.084       .  S
C1305      C1306   1.404   1_556  A
C1306     Br1307   1.920       .  S
C1311      C1312   1.408       .  A
C1311      C1316   1.404   1_554  A
C1311      H1318   1.084       .  S
C1312      C1313   1.414       .  A
C1313      C1314   1.406   1_554  A
C1313     Br1320   1.920       .  S
C1314      C1315   1.410       .  A
C1314      H1319   1.083       .  S
C1315      C1316   1.417       .  A
C1316     Br1317   1.922       .  S
C1321      C1322   1.404       .  A
C1321      C1326   1.393   1_556  A
C1321      H1328   1.084       .  S
C1322      C1323   1.409       .  A
C1323      C1324   1.396   1_556  A
C1323     Br1330   1.922       .  S
C1324      C1325   1.408       .  A
C1324      H1329   1.083       .  S
C1325      C1326   1.414       .  A
C1326     Br1327   1.923       .  S
C1331      C1332   1.404       .  A
C1331      C1336   1.399       .  A
C1331      H1338   1.083       .  S
C1332      C1333   1.408       .  A
C1333      C1334   1.395       .  A
C1333     Br1340   1.920       .  S
C1334      C1335   1.402       .  A
C1334      H1339   1.084       .  S
C1335      C1336   1.410       .  A
C1336     Br1337   1.920       .  S
C1341      C1342   1.409       .  A
C1341      C1346   1.405   1_556  A
C1341      H1348   1.084       .  S
C1342      C1343   1.412       .  A
C1343      C1344   1.405   1_556  A
C1343     Br1350   1.920       .  S
C1344      C1345   1.411       .  A
C1344      H1349   1.084       .  S
C1345      C1346   1.414       .  A
C1346     Br1347   1.920       .  S
C1351      C1352   1.402       .  A
C1351      C1356   1.400       .  A
C1351      H1358   1.082       .  S
C1352      C1353   1.410       .  A
C1353      C1354   1.396       .  A
C1353     Br1360   1.921       .  S
C1354      C1355   1.400       .  A
C1354      H1359   1.084       .  S
C1355      C1356   1.409       .  A
C1356     Br1357   1.919       .  S
C1361      C1362   1.401       .  A
C1361      C1366   1.406       .  A
C1361      H1368   1.084       .  S
C1362      C1363   1.418   1_554  A
C1363      C1364   1.405       .  A
C1363     Br1370   1.922       .  S
C1364      C1365   1.403       .  A
C1364      H1369   1.083       .  S
C1365      C1366   1.422   1_556  A
C1366     Br1367   1.921       .  S
C1371      C1372   1.409       .  A
C1371      C1376   1.400   1_554  A
C1371      H1378   1.083       .  S
C1372      C1373   1.412       .  A
C1373      C1374   1.393   1_554  A
C1373     Br1380   1.924       .  S
C1374      C1375   1.404       .  A
C1374      H1379   1.085       .  S
C1375      C1376   1.410       .  A
C1376     Br1377   1.920       .  S
C1381      C1382   1.403       .  A
C1381      C1386   1.393   1_556  A
C1381      H1388   1.083       .  S
C1382      C1383   1.411       .  A
C1383      C1384   1.395       .  A
C1383     Br1390   1.922       .  S
C1384      C1385   1.403   1_556  A
C1384      H1389   1.084   1_556  S
C1385      C1386   1.412       .  A
C1386     Br1387   1.923       .  S
C1391      C1392   1.401       .  A
C1391      C1396   1.397       .  A
C1391      H1398   1.083       .  S
C1392      C1393   1.406       .  A
C1393      C1394   1.395       .  A
C1393     Br1400   1.918       .  S
C1394      C1395   1.401       .  A
C1394      H1399   1.083       .  S
C1395      C1396   1.410       .  A
C1396     Br1397   1.922       .  S
C1401      C1402   1.406       .  A
C1401      C1406   1.404       .  A
C1401      H1408   1.083       .  S
C1402      C1403   1.416       .  A
C1403      C1404   1.404       .  A
C1403     Br1410   1.921       .  S
C1404      C1405   1.406       .  A
C1404      H1409   1.083       .  S
C1405      C1406   1.418       .  A
C1406     Br1407   1.922       .  S
C1411      C1412   1.403       .  A
C1411      C1416   1.397       .  A
C1411      H1418   1.083       .  S
C1412      C1413   1.413       .  A
C1413      C1414   1.396       .  A
C1413     Br1420   1.922       .  S
C1414      C1415   1.400       .  A
C1414      H1419   1.084       .  S
C1415      C1416   1.405       .  A
C1416     Br1417   1.917       .  S
C1421      C1422   1.407       .  A
C1421      C1426   1.397       .  A
C1421      H1428   1.083       .  S
C1422      C1423   1.412       .  A
C1423      C1424   1.396       .  A
C1423     Br1430   1.922   1_455  S
C1424      C1425   1.406       .  A
C1424      H1429   1.084       .  S
C1425      C1426   1.409       .  A
C1426     Br1427   1.921       .  S
C1431      C1432   1.413       .  A
C1431      C1436   1.409       .  A
C1431      H1438   1.082       .  S
C1432      C1433   1.415       .  A
C1433      C1434   1.401       .  A
C1433     Br1440   1.921       .  S
C1434      C1435   1.405       .  A
C1434      H1439   1.083       .  S
C1435      C1436   1.413       .  A
C1436     Br1437   1.920       .  S
C1441      C1442   1.402   1_655  A
C1441      C1446   1.391   1_655  A
C1441      H1448   1.084       .  S
C1442      C1443   1.404       .  A
C1443      C1444   1.393       .  A
C1443     Br1450   1.921       .  S
C1444      C1445   1.407       .  A
C1444      H1449   1.083       .  S
C1445      C1446   1.410       .  A
C1446     Br1447   1.923   1_455  S
C1451      C1452   1.405       .  A
C1451      C1456   1.400       .  A
C1451      H1458   1.084       .  S
C1452      C1453   1.410       .  A
C1453      C1454   1.398       .  A
C1453     Br1460   1.921       .  S
C1454      C1455   1.403       .  A
C1454      H1459   1.083       .  S
C1455      C1456   1.409       .  A
C1456     Br1457   1.920       .  S
C1461      C1462   1.406       .  A
C1461      C1466   1.404       .  A
C1461      H1468   1.084       .  S
C1462      C1463   1.414       .  A
C1463      C1464   1.409       .  A
C1463     Br1470   1.920       .  S
C1464      C1465   1.412       .  A
C1464      H1469   1.083       .  S
C1465      C1466   1.418       .  A
C1466     Br1467   1.922   1_455  S
C1471      C1472   1.406       .  A
C1471      C1476   1.398       .  A
C1471      H1478   1.083       .  S
C1472      C1473   1.411       .  A
C1473      C1474   1.396       .  A
C1473     Br1480   1.921       .  S
C1474      C1475   1.402       .  A
C1474      H1479   1.084       .  S
C1475      C1476   1.407       .  A
C1476     Br1477   1.921       .  S
C1481      C1482   1.403       .  A
C1481      C1486   1.394       .  A
C1481      H1488   1.085       .  S
C1482      C1483   1.408       .  A
C1483      C1484   1.399       .  A
C1483     Br1490   1.919   1_455  S
C1484      C1485   1.409       .  A
C1484      H1489   1.084       .  S
C1485      C1486   1.413       .  A
C1486     Br1487   1.923       .  S
C1491      C1492   1.401       .  A
C1491      C1496   1.392       .  A
C1491      H1498   1.085       .  S
C1492      C1493   1.408       .  A
C1493      C1494   1.397       .  A
C1493     Br1500   1.921       .  S
C1494      C1495   1.407       .  A
C1494      H1499   1.084       .  S
C1495      C1496   1.413       .  A
C1496     Br1497   1.922       .  S
C1501      C1502   1.402       .  A
C1501      C1506   1.398       .  A
C1501      H1508   1.084       .  S
C1502      C1503   1.409       .  A
C1503      C1504   1.399       .  A
C1503     Br1510   1.921       .  S
C1504      C1505   1.405       .  A
C1504      H1509   1.084       .  S
C1505      C1506   1.412       .  A
C1506     Br1507   1.920       .  S
C1511      C1512   1.410       .  A
C1511      C1516   1.402       .  A
C1511      H1518   1.084       .  S
C1512      C1513   1.415       .  A
C1513      C1514   1.407       .  A
C1513     Br1520   1.919       .  S
C1514      C1515   1.410       .  A
C1514      H1519   1.083       .  S
C1515      C1516   1.414       .  A
C1516     Br1517   1.922       .  S
C1521      C1522   1.400       .  A
C1521      C1526   1.395       .  A
C1521      H1528   1.083       .  S
C1522      C1523   1.406       .  A
C1523      C1524   1.396       .  A
C1523     Br1530   1.920       .  S
C1524      C1525   1.405       .  A
C1524      H1529   1.083       .  S
C1525      C1526   1.411       .  A
C1526     Br1527   1.920       .  S
C1531      C1532   1.412       .  A
C1531      C1536   1.408       .  A
C1531      H1538   1.083       .  S
C1532      C1533   1.418       .  A
C1533      C1534   1.406       .  A
C1533     Br1540   1.920       .  S
C1534      C1535   1.407       .  A
C1534      H1539   1.084       .  S
C1535      C1536   1.412       .  A
C1536     Br1537   1.919       .  S
C1541      C1542   1.406       .  A
C1541      C1546   1.396       .  A
C1541      H1548   1.083       .  S
C1542      C1543   1.414       .  A
C1543      C1544   1.393       .  A
C1543     Br1550   1.923       .  S
C1544      C1545   1.403       .  A
C1544      H1549   1.084       .  S
C1545      C1546   1.411       .  A
C1546     Br1547   1.922       .  S
C1551      C1552   1.409       .  A
C1551      C1556   1.405       .  A
C1551      H1558   1.083       .  S
C1552      C1553   1.417       .  A
C1553      C1554   1.405       .  A
C1553     Br1560   1.921       .  S
C1554      C1555   1.408   1_455  A
C1554      H1559   1.083       .  S
C1555      C1556   1.415   1_655  A
C1556     Br1557   1.921       .  S
C1561      C1562   1.397       .  A
C1561      C1566   1.398       .  A
C1561      H1568   1.083       .  S
C1562      C1563   1.409       .  A
C1563      C1564   1.396       .  A
C1563     Br1570   1.919       .  S
C1564      C1565   1.400       .  A
C1564      H1569   1.083   1_455  S
C1565      C1566   1.415       .  A
C1566     Br1567   1.921       .  S
C1571      C1572   1.400       .  A
C1571      C1576   1.397       .  A
C1571      H1578   1.084       .  S
C1572      C1573   1.408       .  A
C1573      C1574   1.400       .  A
C1573     Br1580   1.921       .  S
C1574      C1575   1.404       .  A
C1574      H1579   1.083       .  S
C1575      C1576   1.411       .  A
C1576     Br1577   1.920       .  S
C1581      C1582   1.406       .  A
C1581      C1586   1.402       .  A
C1581      H1588   1.083       .  S
C1582      C1583   1.415       .  A
C1583      C1584   1.402       .  A
C1583     Br1590   1.921       .  S
C1584      C1585   1.407       .  A
C1584      H1589   1.083       .  S
C1585      C1586   1.419       .  A
C1586     Br1587   1.924       .  S
C1591      C1592   1.402       .  A
C1591      C1596   1.400       .  A
C1591      H1598   1.084       .  S
C1592      C1593   1.405       .  A
C1593      C1594   1.394       .  A
C1593     Br1600   1.922       .  S
C1594      C1595   1.406       .  A
C1594      H1599   1.083       .  S
C1595      C1596   1.413       .  A
C1596     Br1597   1.921       .  S
C1601      C1602   1.408       .  A
C1601      C1606   1.398       .  A
C1601      H1608   1.083       .  S
C1602      C1603   1.408       .  A
C1603      C1604   1.397   1_455  A
C1603     Br1610   1.922   1_455  S
C1604      C1605   1.406   1_655  A
C1604      H1609   1.083       .  S
C1605      C1606   1.404       .  A
C1606     Br1607   1.918       .  S
C1611      C1612   1.409       .  A
C1611      C1616   1.404       .  A
C1611      H1618   1.083       .  S
C1612      C1613   1.410       .  A
C1613      C1614   1.403       .  A
C1613     Br1620   1.920   1_455  S
C1614      C1615   1.411       .  A
C1614      H1619   1.083       .  S
C1615      C1616   1.412       .  A
C1616     Br1617   1.918       .  S
C1621      C1622   1.399       .  A
C1621      C1626   1.396       .  A
C1621      H1628   1.083   1_455  S
C1622      C1623   1.413       .  A
C1623      C1624   1.396       .  A
C1623     Br1630   1.922       .  S
C1624      C1625   1.400       .  A
C1624      H1629   1.083       .  S
C1625      C1626   1.412       .  A
C1626     Br1627   1.922       .  S
C1631      C1632   1.399       .  A
C1631      C1636   1.393       .  A
C1631      H1638   1.083       .  S
C1632      C1633   1.408       .  A
C1633      C1634   1.401       .  A
C1633     Br1640   1.919       .  S
C1634      C1635   1.406       .  A
C1634      H1639   1.083       .  S
C1635      C1636   1.412       .  A
C1636     Br1637   1.921       .  S
C1641      C1642   1.407       .  A
C1641      C1646   1.402       .  A
C1641      H1648   1.083       .  S
C1642      C1643   1.416       .  A
C1643      C1644   1.408       .  A
C1643     Br1650   1.919       .  S
C1644      C1645   1.406       .  A
C1644      H1649   1.083       .  S
C1645      C1646   1.415       .  A
C1646     Br1647   1.922       .  S
C1651      C1652   1.405       .  A
C1651      C1656   1.395       .  A
C1651      H1658   1.083       .  S
C1652      C1653   1.410       .  A
C1653      C1654   1.398       .  A
C1653     Br1660   1.920       .  S
C1654      C1655   1.405       .  A
C1654      H1659   1.083       .  S
C1655      C1656   1.407       .  A
C1656     Br1657   1.921       .  S
C1661      C1662   1.406   1_545  A
C1661      C1666   1.397       .  A
C1661      H1668   1.083       .  S
C1662      C1663   1.406       .  A
C1663      C1664   1.395   1_565  A
C1663     Br1670   1.918       .  S
C1664      C1665   1.403       .  A
C1664      H1669   1.083       .  S
C1665      C1666   1.408       .  A
C1666     Br1667   1.921       .  S
C1671      C1672   1.406       .  A
C1671      C1676   1.406       .  A
C1671      H1678   1.083       .  S
C1672      C1673   1.416       .  A
C1673      C1674   1.404       .  A
C1673     Br1680   1.922       .  S
C1674      C1675   1.405       .  A
C1674      H1679   1.083       .  S
C1675      C1676   1.417       .  A
C1676     Br1677   1.921       .  S
C1681      C1682   1.403       .  A
C1681      C1686   1.391       .  A
C1681      H1688   1.083       .  S
C1682      C1683   1.420   1_545  A
C1683      C1684   1.400   1_565  A
C1683     Br1690   1.922       .  S
C1684      C1685   1.397       .  A
C1684      H1689   1.083   1_545  S
C1685      C1686   1.406       .  A
C1686     Br1687   1.921       .  S
C1691      C1692   1.402       .  A
C1691      C1696   1.398       .  A
C1691      H1698   1.083       .  S
C1692      C1693   1.408       .  A
C1693      C1694   1.401       .  A
C1693     Br1700   1.917       .  S
C1694      C1695   1.404       .  A
C1694      H1699   1.083       .  S
C1695      C1696   1.413       .  A
C1696     Br1697   1.922       .  S
C1701      C1702   1.407       .  A
C1701      C1706   1.399   1_565  A
C1701      H1708   1.084       .  S
C1702      C1703   1.416       .  A
C1703      C1704   1.404   1_565  A
C1703     Br1710   1.921       .  S
C1704      C1705   1.406       .  A
C1704      H1709   1.084       .  S
C1705      C1706   1.409       .  A
C1706     Br1707   1.919       .  S
C1711      C1712   1.408       .  A
C1711      C1716   1.401       .  A
C1711      H1718   1.083       .  S
C1712      C1713   1.415       .  A
C1713      C1714   1.403       .  A
C1713     Br1720   1.921       .  S
C1714      C1715   1.408       .  A
C1714      H1719   1.083       .  S
C1715      C1716   1.416       .  A
C1716     Br1717   1.923       .  S
C1721      C1722   1.403       .  A
C1721      C1726   1.396       .  A
C1721      H1728   1.083       .  S
C1722      C1723   1.408       .  A
C1723      C1724   1.395       .  A
C1723     Br1730   1.921       .  S
C1724      C1725   1.401       .  A
C1724      H1729   1.084       .  S
C1725      C1726   1.408       .  A
C1726     Br1727   1.921       .  S
C1731      C1732   1.408   1_545  A
C1731      C1736   1.401       .  A
C1731      H1738   1.083   1_545  S
C1732      C1733   1.416   1_565  A
C1733      C1734   1.393       .  A
C1733     Br1740   1.923   1_545  S
C1734      C1735   1.403       .  A
C1734      H1739   1.084       .  S
C1735      C1736   1.413       .  A
C1736     Br1737   1.922       .  S
C1741      C1742   1.408       .  A
C1741      C1746   1.403       .  A
C1741      H1748   1.083       .  S
C1742      C1743   1.412       .  A
C1743      C1744   1.404       .  A
C1743     Br1750   1.919       .  S
C1744      C1745   1.410       .  A
C1744      H1749   1.083       .  S
C1745      C1746   1.415       .  A
C1746     Br1747   1.921       .  S
C1751      C1752   1.398   1_545  A
C1751      C1756   1.397       .  A
C1751      H1758   1.083       .  S
C1752      C1753   1.412       .  A
C1753      C1754   1.396       .  A
C1753     Br1760   1.922       .  S
C1754      C1755   1.399   1_565  A
C1754      H1759   1.083       .  S
C1755      C1756   1.414       .  A
C1756     Br1757   1.922       .  S
C1761      C1762   1.404       .  A
C1761      C1766   1.397       .  A
C1761      H1768   1.084       .  S
C1762      C1763   1.410       .  A
C1763      C1764   1.397       .  A
C1763     Br1770   1.921       .  S
C1764      C1765   1.403       .  A
C1764      H1769   1.083       .  S
C1765      C1766   1.409       .  A
C1766     Br1767   1.921       .  S
C1771      C1772   1.410       .  A
C1771      C1776   1.405       .  A
C1771      H1778   1.084       .  S
C1772      C1773   1.414       .  A
C1773      C1774   1.404       .  A
C1773     Br1780   1.921       .  S
C1774      C1775   1.410       .  A
C1774      H1779   1.082       .  S
C1775      C1776   1.414       .  A
C1776     Br1777   1.920       .  S
C1781      C1782   1.403       .  A
C1781      C1786   1.397   1_545  A
C1781      H1788   1.084       .  S
C1782      C1783   1.412       .  A
C1783      C1784   1.409   1_545  A
C1783     Br1790   1.919       .  S
C1784      C1785   1.412       .  A
C1784      H1789   1.084       .  S
C1785      C1786   1.415       .  A
C1786     Br1787   1.923       .  S
C1791      C1792   1.403       .  A
C1791      C1796   1.398       .  A
C1791      H1798   1.084       .  S
C1792      C1793   1.408       .  A
C1793      C1794   1.400       .  A
C1793     Br1800   1.920       .  S
C1794      C1795   1.405       .  A
C1794      H1799   1.083       .  S
C1795      C1796   1.411       .  A
C1796     Br1797   1.921       .  S
C1801      C1802   1.397       .  A
C1801      C1806   1.393   1_565  A
C1801      H1808   1.084       .  S
C1802      C1803   1.414   1_565  A
C1803      C1804   1.397       .  A
C1803     Br1810   1.922       .  S
C1804      C1805   1.399       .  A
C1804      H1809   1.083       .  S
C1805      C1806   1.413       .  A
C1806     Br1807   1.920       .  S
C1811      C1812   1.405       .  A
C1811      C1816   1.400       .  A
C1811      H1818   1.083       .  S
C1812      C1813   1.415       .  A
C1813      C1814   1.404       .  A
C1813     Br1820   1.921       .  S
C1814      C1815   1.409       .  A
C1814      H1819   1.083       .  S
C1815      C1816   1.417       .  A
C1816     Br1817   1.922       .  S
C1821      C1822   1.402   1_545  A
C1821      C1826   1.397       .  A
C1821      H1828   1.083       .  S
C1822      C1823   1.418       .  A
C1823      C1824   1.398       .  A
C1823     Br1830   1.923       .  S
C1824      C1825   1.397   1_565  A
C1824      H1829   1.083       .  S
C1825      C1826   1.410       .  A
C1826     Br1827   1.920       .  S
C1831      C1832   1.400       .  A
C1831      C1836   1.397       .  A
C1831      H1838   1.083       .  S
C1832      C1833   1.407       .  A
C1833      C1834   1.397       .  A
C1833     Br1840   1.919       .  S
C1834      C1835   1.403       .  A
C1834      H1839   1.084       .  S
C1835      C1836   1.413       .  A
C1836     Br1837   1.921       .  S
C1841      C1842   1.405   1_545  A
C1841      C1846   1.405       .  A
C1841      H1848   1.084   1_545  S
C1842      C1843   1.409       .  A
C1843      C1844   1.408   1_565  A
C1843     Br1850   1.921       .  S
C1844      C1845   1.414       .  A
C1844      H1849   1.083       .  S
C1845      C1846   1.418       .  A
C1846     Br1847   1.919       .  S
C1851      C1852   1.409       .  A
C1851      C1856   1.401       .  A
C1851      H1858   1.083       .  S
C1852      C1853   1.416       .  A
C1853      C1854   1.402       .  A
C1853     Br1860   1.921       .  S
C1854      C1855   1.406       .  A
C1854      H1859   1.083       .  S
C1855      C1856   1.412       .  A
C1856     Br1857   1.921       .  S
C1861      C1862   1.400       .  A
C1861      C1866   1.396       .  A
C1861      H1868   1.083       .  S
C1862      C1863   1.410       .  A
C1863      C1864   1.398       .  A
C1863     Br1870   1.922       .  S
C1864      C1865   1.403       .  A
C1864      H1869   1.084       .  S
C1865      C1866   1.409       .  A
C1866     Br1867   1.920       .  S
C1871      C1872   1.410       .  A
C1871      C1876   1.410       .  A
C1871      H1878   1.083       .  S
C1872      C1873   1.419       .  A
C1873      C1874   1.404       .  A
C1873     Br1880   1.922       .  S
C1874      C1875   1.407       .  A
C1874      H1879   1.084       .  S
C1875      C1876   1.417       .  A
C1876     Br1877   1.919       .  S
C1881      C1882   1.402       .  A
C1881      C1886   1.391       .  A
C1881      H1888   1.083   1_545  S
C1882      C1883   1.408       .  A
C1883      C1884   1.397       .  A
C1883     Br1890   1.922       .  S
C1884      C1885   1.409       .  A
C1884      H1889   1.083       .  S
C1885      C1886   1.413       .  A
C1886     Br1887   1.923       .  S
C1891      C1892   1.409       .  A
C1891      C1896   1.401   1_545  A
C1891      H1898   1.083       .  S
C1892      C1893   1.416       .  A
C1893      C1894   1.406       .  A
C1893     Br1900   1.921       .  S
C1894      C1895   1.410   1_545  A
C1894      H1899   1.082   1_545  S
C1895      C1896   1.411       .  A
C1896     Br1897   1.919       .  S
C1901      C1902   1.405       .  A
C1901      C1906   1.398   1_545  A
C1901      H1908   1.083       .  S
C1902      C1903   1.413       .  A
C1903      C1904   1.396   1_545  A
C1903     Br1910   1.922       .  S
C1904      C1905   1.406       .  A
C1904      H1909   1.084       .  S
C1905      C1906   1.415       .  A
C1906     Br1907   1.923       .  S
C1911      C1912   1.405       .  A
C1911      C1916   1.399       .  A
C1911      H1918   1.083       .  S
C1912      C1913   1.412       .  A
C1913      C1914   1.396       .  A
C1913     Br1920   1.920       .  S
C1914      C1915   1.399       .  A
C1914      H1919   1.084       .  S
C1915      C1916   1.408       .  A
C1916     Br1917   1.920       .  S
C1921      C1922   1.408       .  A
C1921      C1926   1.401       .  A
C1921      H1928   1.081       .  S
C1922      C1923   1.409       .  A
C1923      C1924   1.402       .  A
C1923     Br1930   1.917       .  S
C1924      C1925   1.409       .  A
C1924      H1929   1.083       .  S
C1925      C1926   1.408       .  A
C1926     Br1927   1.915       .  S
C1931      C1932   1.407       .  A
C1931      C1936   1.402       .  A
C1931      H1938   1.083       .  S
C1932      C1933   1.411       .  A
C1933      C1934   1.396       .  A
C1933     Br1940   1.911   1_565  S
C1934      C1935   1.395       .  A
C1934      H1939   1.084       .  S
C1935      C1936   1.407       .  A
C1936     Br1937   1.918       .  S
C1941      C1942   1.405       .  A
C1941      C1946   1.401       .  A
C1941      H1948   1.083       .  S
C1942      C1943   1.411       .  A
C1943      C1944   1.406       .  A
C1943     Br1950   1.913   1_545  S
C1944      C1945   1.405       .  A
C1944      H1949   1.083       .  S
C1945      C1946   1.414       .  A
C1946     Br1947   1.922       .  S
C1951      C1952   1.407       .  A
C1951      C1956   1.401       .  A
C1951      H1958   1.084       .  S
C1952      C1953   1.420       .  A
C1953      C1954   1.399       .  A
C1953     Br1960   1.910       .  S
C1954      C1955   1.397       .  A
C1954      H1959   1.084       .  S
C1955      C1956   1.413       .  A
C1956     Br1957   1.920       .  S
C1961      C1962   1.407       .  A
C1961      C1966   1.407       .  A
C1961      H1968   1.083       .  S
C1962      C1963   1.424   1_455  A
C1963      C1964   1.408       .  A
C1963     Br1970   1.914       .  S
C1964      C1965   1.404       .  A
C1964      H1969   1.083       .  S
C1965      C1966   1.419   1_655  A
C1966     Br1967   1.920       .  S
C1971      C1972   1.405       .  A
C1971      C1976   1.402       .  A
C1971      H1978   1.084       .  S
C1972      C1973   1.411       .  A
C1973      C1974   1.398       .  A
C1973     Br1980   1.913       .  S
C1974      C1975   1.399       .  A
C1974      H1979   1.085   1_655  S
C1975      C1976   1.408       .  A
C1976     Br1977   1.920       .  S
C1981      C1982   1.406       .  A
C1981      C1986   1.397       .  A
C1981      H1988   1.079       .  S
C1982      C1983   1.416       .  A
C1983      C1984   1.402       .  A
C1983     Br1990   1.919       .  S
C1984      C1985   1.413       .  A
C1984      H1989   1.082       .  S
C1985      C1986   1.423       .  A
C1986     Br1987   1.919   1_655  S
C1991      C1992   1.400       .  A
C1991      C1996   1.398       .  A
C1991      H1998   1.084       .  S
C1992      C1993   1.413   1_565  A
C1993      C1994   1.403       .  A
C1993     Br2000   1.919       .  S
C1994      C1995   1.403   1_545  A
C1994      H1999   1.084       .  S
C1995      C1996   1.415       .  A
C1996     Br1997   1.916       .  S
C2001      C2002   1.413       .  A
C2001      C2006   1.408       .  A
C2001      H2008   1.082       .  S
C2002      C2003   1.412       .  A
C2003      C2004   1.405       .  A
C2003     Br2010   1.921       .  S
C2004      C2005   1.410       .  A
C2004      H2009   1.073       .  S
C2005      C2006   1.409       .  A
C2006     Br2007   1.918   1_556  S
C2011      C2012   1.410       .  A
C2011      C2016   1.409       .  A
C2011      H2018   1.082       .  S
C2012      C2013   1.423   1_455  A
C2013      C2014   1.407       .  A
C2013     Br2020   1.923       .  S
C2014      C2015   1.408   1_655  A
C2014      H2019   1.083       .  S
C2015      C2016   1.420       .  A
C2016     Br2017   1.924       .  S
C2021      C2022   1.407       .  A
C2021      C2026   1.408       .  A
C2021      H2028   1.084       .  S
C2022      C2023   1.415       .  A
C2023      C2024   1.397       .  A
C2023     Br2030   1.912       .  S
C2024      C2025   1.400       .  A
C2024      H2029   1.083       .  S
C2025      C2026   1.418       .  A
C2026     Br2027   1.920       .  S
C2031      C2032   1.413       .  A
C2031      C2036   1.401       .  A
C2031      H2038   1.084       .  S
C2032      C2033   1.416       .  A
C2033      C2034   1.401       .  A
C2033     Br2040   1.920       .  S
C2034      C2035   1.402       .  A
C2034      H2039   1.082       .  S
C2035      C2036   1.404       .  A
C2036     Br2037   1.918   1_455  S
C2041      C2042   1.403       .  A
C2041      C2046   1.402       .  A
C2041      H2048   1.084       .  S
C2042      C2043   1.411       .  A
C2043      C2044   1.402       .  A
C2043     Br2050   1.913       .  S
C2044      C2045   1.402       .  A
C2044      H2049   1.084       .  S
C2045      C2046   1.411       .  A
C2046     Br2047   1.919       .  S
C2051      C2052   1.417       .  A
C2051      C2056   1.402       .  A
C2051      H2058   1.078   1_554  S
C2052      C2053   1.439       .  A
C2053      C2054   1.405       .  A
C2053     Br2060   1.922       .  S
C2054      C2055   1.394       .  A
C2054      H2059   1.085       .  S
C2055      C2056   1.407       .  A
C2056     Br2057   1.921       .  S
C2061      C2062   1.405       .  A
C2061      C2066   1.400       .  A
C2061      H2068   1.080       .  S
C2062      C2063   1.404       .  A
C2063      C2064   1.401       .  A
C2063     Br2070   1.918       .  S
C2064      C2065   1.406       .  A
C2064      H2069   1.081       .  S
C2065      C2066   1.401       .  A
C2066     Br2067   1.918       .  S
C2071      C2072   1.398       .  A
C2071      C2076   1.394       .  A
C2071      H2078   1.084       .  S
C2072      C2073   1.411       .  A
C2073      C2074   1.398       .  A
C2073     Br2080   1.918       .  S
C2074      C2075   1.403       .  A
C2074      H2079   1.083       .  S
C2075      C2076   1.414       .  A
C2076     Br2077   1.909   1_655  S
C2081      C2082   1.404       .  A
C2081      C2086   1.408       .  A
C2081      H2088   1.082       .  S
C2082      C2083   1.417   1_455  A
C2083      C2084   1.406       .  A
C2083     Br2090   1.921       .  S
C2084      C2085   1.406       .  A
C2084      H2089   1.083       .  S
C2085      C2086   1.416   1_655  A
C2086     Br2087   1.919       .  S
C2091      C2092   1.414       .  A
C2091      C2096   1.411       .  A
C2091      H2098   1.076       .  S
C2092      C2093   1.418       .  A
C2093      C2094   1.408       .  A
C2093     Br2100   1.925       .  S
C2094      C2095   1.416       .  A
C2094      H2099   1.083   1_554  S
C2095      C2096   1.423       .  A
C2096     Br2097   1.918       .  S
C2101      C2102   1.404       .  A
C2101      C2106   1.401       .  A
C2101      H2108   1.084       .  S
C2102      C2103   1.414       .  A
C2103      C2104   1.405       .  A
C2103     Br2110   1.919   1_554  S
C2104      C2105   1.403       .  A
C2104      H2109   1.084   1_554  S
C2105      C2106   1.417       .  A
C2106     Br2107   1.923       .  S
C2111      C2112   1.413   1_565  A
C2111      C2116   1.408   1_565  A
C2111      H2118   1.077       .  S
C2112      C2113   1.418       .  A
C2113      C2114   1.403       .  A
C2113     Br2120   1.918       .  S
C2114      C2115   1.411       .  A
C2114      H2119   1.084       .  S
C2115      C2116   1.423       .  A
C2116     Br2117   1.922   1_545  S
C2121      C2122   1.406       .  A
C2121      C2126   1.406       .  A
C2121      H2128   1.084       .  S
C2122      C2123   1.419       .  A
C2123      C2124   1.400       .  A
C2123     Br2130   1.902       .  S
C2124      C2125   1.394       .  A
C2124      H2129   1.084       .  S
C2125      C2126   1.411       .  A
C2126     Br2127   1.913       .  S
C2131      C2132   1.405   1_545  A
C2131      C2136   1.406   1_545  A
C2131      H2138   1.083       .  S
C2132      C2133   1.417       .  A
C2133      C2134   1.402       .  A
C2133     Br2140   1.924       .  S
C2134      C2135   1.404       .  A
C2134      H2139   1.084       .  S
C2135      C2136   1.412       .  A
C2136     Br2137   1.917   1_565  S
C2141      C2142   1.403       .  A
C2141      C2146   1.398       .  A
C2141      H2148   1.080       .  S
C2142      C2143   1.413       .  A
C2143      C2144   1.406       .  A
C2143     Br2150   1.920       .  S
C2144      C2145   1.413       .  A
C2144      H2149   1.083       .  S
C2145      C2146   1.415       .  A
C2146     Br2147   1.914   1_556  S
C2151      C2152   1.408       .  A
C2151      C2156   1.407       .  A
C2151      H2158   1.084   1_545  S
C2152      C2153   1.420       .  A
C2153      C2154   1.404       .  A
C2153     Br2160   1.909       .  S
C2154      C2155   1.401       .  A
C2154      H2159   1.085       .  S
C2155      C2156   1.418       .  A
C2156     Br2157   1.921       .  S
C2161      C2162   1.396       .  A
C2161      C2166   1.398       .  A
C2161      H2168   1.084       .  S
C2162      C2163   1.409       .  A
C2163      C2164   1.398       .  A
C2163     Br2170   1.910       .  S
C2164      C2165   1.402       .  A
C2164      H2169   1.084       .  S
C2165      C2166   1.418       .  A
C2166     Br2167   1.908       .  S
C2171      C2172   1.399       .  A
C2171      C2176   1.401       .  A
C2171      H2178   1.083       .  S
C2172      C2173   1.408       .  A
C2173      C2174   1.401       .  A
C2173     Br2180   1.918       .  S
C2174      C2175   1.402       .  A
C2174      H2179   1.083       .  S
C2175      C2176   1.414       .  A
C2176     Br2177   1.917   1_565  S
C2181      C2182   1.411       .  A
C2181      C2186   1.405       .  A
C2181      H2188   1.080       .  S
C2182      C2183   1.411       .  A
C2183      C2184   1.401       .  A
C2183     Br2190   1.919   1_556  S
C2184      C2185   1.407       .  A
C2184      H2189   1.083       .  S
C2185      C2186   1.409       .  A
C2186     Br2187   1.920       .  S
C2191      C2192   1.405       .  A
C2191      C2196   1.404       .  A
C2191      H2198   1.084   1_545  S
C2192      C2193   1.414       .  A
C2193      C2194   1.402       .  A
C2193     Br2200   1.922       .  S
C2194      C2195   1.405       .  A
C2194      H2199   1.084       .  S
C2195      C2196   1.412       .  A
C2196     Br2197   1.918   1_545  S
C2201      C2202   1.408   1_655  A
C2201      C2206   1.405       .  A
C2201      H2208   1.083       .  S
C2202      C2203   1.424       .  A
C2203      C2204   1.399       .  A
C2203     Br2210   1.926       .  S
C2204      C2205   1.405       .  A
C2204      H2209   1.082       .  S
C2205      C2206   1.420   1_455  A
C2206     Br2207   1.922       .  S
C2211      C2212   1.407       .  A
C2211      C2216   1.404       .  A
C2211      H2218   1.083       .  S
C2212      C2213   1.418       .  A
C2213      C2214   1.395       .  A
C2213     Br2220   1.906       .  S
C2214      C2215   1.394       .  A
C2214      H2219   1.084       .  S
C2215      C2216   1.412       .  A
C2216     Br2217   1.919       .  S
C2221      C2222   1.404       .  A
C2221      C2226   1.404       .  A
C2221      H2228   1.080       .  S
C2222      C2223   1.404       .  A
C2223      C2224   1.404       .  A
C2223     Br2230   1.918   1_455  S
C2224      C2225   1.413       .  A
C2224      H2229   1.083       .  S
C2225      C2226   1.417       .  A
C2226     Br2227   1.921       .  S
C2231      C2232   1.412       .  A
C2231      C2236   1.405       .  A
C2231      H2238   1.082       .  S
C2232      C2233   1.426       .  A
C2233      C2234   1.407       .  A
C2233     Br2240   1.924   1_545  S
C2234      C2235   1.412       .  A
C2234      H2239   1.072   1_545  S
C2235      C2236   1.418       .  A
C2236     Br2237   1.924       .  S
C2241      C2242   1.404       .  A
C2241      C2246   1.402       .  A
C2241      H2248   1.084       .  S
C2242      C2243   1.407       .  A
C2243      C2244   1.398       .  A
C2243     Br2250   1.913       .  S
C2244      C2245   1.403       .  A
C2244      H2249   1.083       .  S
C2245      C2246   1.410       .  A
C2246     Br2247   1.916       .  S
C2251      C2252   1.403   1_545  A
C2251      C2256   1.408       .  A
C2251      H2258   1.083       .  S
C2252      C2253   1.413       .  A
C2253      C2254   1.400       .  A
C2253     Br2260   1.921       .  S
C2254      C2255   1.405       .  A
C2254      H2259   1.083       .  S
C2255      C2256   1.419   1_565  A
C2256     Br2257   1.919       .  S
C2261      C2262   1.407       .  A
C2261      C2266   1.405       .  A
C2261      H2268   1.084       .  S
C2262      C2263   1.407       .  A
C2263      C2264   1.400       .  A
C2263     Br2270   1.912       .  S
C2264      C2265   1.404       .  A
C2264      H2269   1.083       .  S
C2265      C2266   1.411       .  A
C2266     Br2267   1.917       .  S
C2271      C2272   1.406       .  A
C2271      C2276   1.398       .  A
C2271      H2278   1.083       .  S
C2272      C2273   1.417       .  A
C2273      C2274   1.403       .  A
C2273     Br2280   1.914   1_565  S
C2274      C2275   1.404       .  A
C2274      H2279   1.083       .  S
C2275      C2276   1.409       .  A
C2276     Br2277   1.910       .  S
C2281      C2282   1.407       .  A
C2281      C2286   1.403       .  A
C2281      H2288   1.077       .  S
C2282      C2283   1.417   1_455  A
C2283      C2284   1.401       .  A
C2283     Br2290   1.911       .  S
C2284      C2285   1.401       .  A
C2284      H2289   1.084       .  S
C2285      C2286   1.412   1_655  A
C2286     Br2287   1.920       .  S
C2291      C2292   1.419       .  A
C2291      C2296   1.411       .  A
C2291      H2298   1.077       .  S
C2292      C2293   1.417   1_455  A
C2293      C2294   1.407       .  A
C2293     Br2300   1.910       .  S
C2294      C2295   1.414   1_655  A
C2294      H2299   1.081       .  S
C2295      C2296   1.416       .  A
C2296     Br2297   1.920       .  S
C2301      C2302   1.408       .  A
C2301      C2306   1.407       .  A
C2301      H2308   1.083       .  S
C2302      C2303   1.409       .  A
C2303      C2304   1.406       .  A
C2303     Br2310   1.919   1_455  S
C2304      C2305   1.412       .  A
C2304      H2309   1.083       .  S
C2305      C2306   1.414       .  A
C2306     Br2307   1.918       .  S
C2311      C2312   1.410       .  A
C2311      C2316   1.399       .  A
C2311      H2318   1.082       .  S
C2312      C2313   1.423   1_554  A
C2313      C2314   1.412       .  A
C2313     Br2320   1.920       .  S
C2314      C2315   1.413       .  A
C2314      H2319   1.075       .  S
C2315      C2316   1.418   1_556  A
C2316     Br2317   1.918       .  S
C2321      C2322   1.406       .  A
C2321      C2326   1.405       .  A
C2321      H2328   1.083       .  S
C2322      C2323   1.416       .  A
C2323      C2324   1.398       .  A
C2323     Br2330   1.914       .  S
C2324      C2325   1.401       .  A
C2324      H2329   1.081       .  S
C2325      C2326   1.416       .  A
C2326     Br2327   1.921       .  S
C2331      C2332   1.399       .  A
C2331      C2336   1.406       .  A
C2331      H2338   1.084       .  S
C2332      C2333   1.414       .  A
C2333      C2334   1.402       .  A
C2333     Br2340   1.921       .  S
C2334      C2335   1.409       .  A
C2334      H2339   1.083       .  S
C2335      C2336   1.430       .  A
C2336     Br2337   1.917       .  S
C2341      C2342   1.410       .  A
C2341      C2346   1.402       .  A
C2341      H2348   1.082       .  S
C2342      C2343   1.423       .  A
C2343      C2344   1.406       .  A
C2343     Br2350   1.919   1_455  S
C2344      C2345   1.408       .  A
C2344      H2349   1.080       .  S
C2345      C2346   1.421       .  A
C2346     Br2347   1.926       .  S
C2351      C2352   1.401       .  A
C2351      C2356   1.397       .  A
C2351      H2358   1.085       .  S
C2352      C2353   1.405       .  A
C2353      C2354   1.399       .  A
C2353     Br2360   1.919       .  S
C2354      C2355   1.404       .  A
C2354      H2359   1.084       .  S
C2355      C2356   1.406       .  A
C2356     Br2357   1.915       .  S
C2361      C2362   1.409       .  A
C2361      C2366   1.407       .  A
C2361      H2368   1.083       .  S
C2362      C2363   1.416   1_455  A
C2363      C2364   1.400       .  A
C2363     Br2370   1.921       .  S
C2364      C2365   1.403       .  A
C2364      H2369   1.083       .  S
C2365      C2366   1.413   1_655  A
C2366     Br2367   1.919       .  S
C2371      C2372   1.393       .  A
C2371      C2376   1.398       .  A
C2371      H2378   1.085       .  S
C2372      C2373   1.413       .  A
C2373      C2374   1.406       .  A
C2373     Br2380   1.917       .  S
C2374      C2375   1.407       .  A
C2374      H2379   1.084       .  S
C2375      C2376   1.421       .  A
C2376     Br2377   1.907       .  S
C2381      C2382   1.405       .  A
C2381      C2386   1.398       .  A
C2381      H2388   1.084       .  S
C2382      C2383   1.403       .  A
C2383      C2384   1.399       .  A
C2383     Br2390   1.917       .  S
C2384      C2385   1.403       .  A
C2384      H2389   1.081       .  S
C2385      C2386   1.406       .  A
C2386     Br2387   1.915       .  S
C2391      C2392   1.413       .  A
C2391      C2396   1.400       .  A
C2391      H2398   1.081   1_556  S
C2392      C2393   1.433       .  A
C2393      C2394   1.409       .  A
C2393     Br2400   1.919       .  S
C2394      C2395   1.400       .  A
C2394      H2399   1.083       .  S
C2395      C2396   1.411       .  A
C2396     Br2397   1.923       .  S
C2401      C2402   1.410       .  A
C2401      C2406   1.401       .  A
C2401      H2408   1.082       .  S
C2402      C2403   1.422   1_556  A
C2403      C2404   1.407       .  A
C2403     Br2410   1.922       .  S
C2404      C2405   1.410       .  A
C2404      H2409   1.080       .  S
C2405      C2406   1.421   1_554  A
C2406     Br2407   1.927       .  S
C2411      C2412   1.403       .  A
C2411      C2416   1.401       .  A
C2411      H2418   1.084       .  S
C2412      C2413   1.413       .  A
C2413      C2414   1.406       .  A
C2413     Br2420   1.919   1_554  S
C2414      C2415   1.407       .  A
C2414      H2419   1.083   1_554  S
C2415      C2416   1.414       .  A
C2416     Br2417   1.921       .  S
C2421      C2422   1.410       .  A
C2421      C2426   1.401   1_545  A
C2421      H2428   1.082   1_545  S
C2422      C2423   1.416       .  A
C2423      C2424   1.404       .  A
C2423     Br2430   1.923       .  S
C2424      C2425   1.414       .  A
C2424      H2429   1.081       .  S
C2425      C2426   1.420   1_545  A
C2426     Br2427   1.922       .  S
C2431      C2432   1.406       .  A
C2431      C2436   1.400       .  A
C2431      H2438   1.083       .  S
C2432      C2433   1.417       .  A
C2433      C2434   1.398       .  A
C2433     Br2440   1.913       .  S
C2434      C2435   1.396       .  A
C2434      H2439   1.084       .  S
C2435      C2436   1.412       .  A
C2436     Br2437   1.920       .  S
C2441      C2442   1.401       .  A
C2441      C2446   1.402       .  A
C2441      H2448   1.082       .  S
C2442      C2443   1.406       .  A
C2443      C2444   1.407       .  A
C2443     Br2450   1.916   1_545  S
C2444      C2445   1.412       .  A
C2444      H2449   1.083       .  S
C2445      C2446   1.417       .  A
C2446     Br2447   1.921       .  S
C2451      C2452   1.412       .  A
C2451      C2456   1.410       .  A
C2451      H2458   1.076       .  S
C2452      C2453   1.419       .  A
C2453      C2454   1.400   1_556  A
C2453     Br2460   1.925   1_556  S
C2454      C2455   1.412   1_554  A
C2454      H2459   1.082       .  S
C2455      C2456   1.420       .  A
C2456     Br2457   1.921       .  S
C2461      C2462   1.406       .  A
C2461      C2466   1.401       .  A
C2461      H2468   1.083       .  S
C2462      C2463   1.405       .  A
C2463      C2464   1.397       .  A
C2463     Br2470   1.909       .  S
C2464      C2465   1.404       .  A
C2464      H2469   1.078       .  S
C2465      C2466   1.413       .  A
C2466     Br2467   1.918       .  S
C2471      C2472   1.401       .  A
C2471      C2476   1.399       .  A
C2471      H2478   1.071       .  S
C2472      C2473   1.414       .  A
C2473      C2474   1.403       .  A
C2473     Br2480   1.921       .  S
C2474      C2475   1.405       .  A
C2474      H2479   1.084       .  S
C2475      C2476   1.414       .  A
C2476     Br2477   1.922       .  S
C2481      C2482   1.415       .  A
C2481      C2486   1.405   1_565  A
C2481      H2488   1.082       .  S
C2482      C2483   1.422   1_565  A
C2483      C2484   1.410       .  A
C2483     Br2490   1.920       .  S
C2484      C2485   1.413       .  A
C2484      H2489   1.075       .  S
C2485      C2486   1.419       .  A
C2486     Br2487   1.926       .  S
C2491      C2492   1.402       .  A
C2491      C2496   1.399       .  A
C2491      H2498   1.083       .  S
C2492      C2493   1.403       .  A
C2493      C2494   1.402       .  A
C2493     Br2500   1.919       .  S
C2494      C2495   1.408       .  A
C2494      H2499   1.081       .  S
C2495      C2496   1.405       .  A
C2496     Br2497   1.915       .  S
C2501      C2502   1.400       .  A
C2501      C2506   1.396       .  A
C2501      H2508   1.084       .  S
C2502      C2503   1.407       .  A
C2503      C2504   1.399       .  A
C2503     Br2510   1.918       .  S
C2504      C2505   1.406       .  A
C2504      H2509   1.084       .  S
C2505      C2506   1.411       .  A
C2506     Br2507   1.912       .  S
C2511      C2512   1.401       .  A
C2511      C2516   1.405       .  A
C2511      H2518   1.084       .  S
C2512      C2513   1.413       .  A
C2513      C2514   1.404       .  A
C2513     Br2520   1.920       .  S
C2514      C2515   1.408       .  A
C2514      H2519   1.084       .  S
C2515      C2516   1.421       .  A
C2516     Br2517   1.913   1_565  S
C2521      C2522   1.407       .  A
C2521      C2526   1.403       .  A
C2521      H2528   1.078       .  S
C2522      C2523   1.421       .  A
C2523      C2524   1.400       .  A
C2523     Br2530   1.920       .  S
C2524      C2525   1.401       .  A
C2524      H2529   1.084       .  S
C2525      C2526   1.410       .  A
C2526     Br2527   1.919       .  S
C2531      C2532   1.407       .  A
C2531      C2536   1.397       .  A
C2531      H2538   1.083       .  S
C2532      C2533   1.416       .  A
C2533      C2534   1.405       .  A
C2533     Br2540   1.917       .  S
C2534      C2535   1.405       .  A
C2534      H2539   1.084       .  S
C2535      C2536   1.410       .  A
C2536     Br2537   1.915       .  S
C2541      C2542   1.403       .  A
C2541      C2546   1.397       .  A
C2541      H2548   1.084       .  S
C2542      C2543   1.409       .  A
C2543      C2544   1.405       .  A
C2543     Br2550   1.919       .  S
C2544      C2545   1.407       .  A
C2544      H2549   1.083       .  S
C2545      C2546   1.412       .  A
C2546     Br2547   1.921       .  S
C2551      C2552   1.396       .  A
C2551      C2556   1.399       .  A
C2551      H2558   1.084       .  S
C2552      C2553   1.408       .  A
C2553      C2554   1.400       .  A
C2553     Br2560   1.912       .  S
C2554      C2555   1.405       .  A
C2554      H2559   1.083       .  S
C2555      C2556   1.419       .  A
C2556     Br2557   1.910       .  S
C2561      C2562   1.408       .  A
C2561      C2566   1.405       .  A
C2561      H2568   1.084       .  S
C2562      C2563   1.407       .  A
C2563      C2564   1.403       .  A
C2563     Br2570   1.920       .  S
C2564      C2565   1.411       .  A
C2564      H2569   1.084       .  S
C2565      C2566   1.414       .  A
C2566     Br2567   1.918       .  S
C2571      C2572   1.409       .  A
C2571      C2576   1.402       .  A
C2571      H2578   1.083       .  S
C2572      C2573   1.415       .  A
C2573      C2574   1.397       .  A
C2573     Br2580   1.913       .  S
C2574      C2575   1.401       .  A
C2574      H2579   1.084       .  S
C2575      C2576   1.408       .  A
C2576     Br2577   1.918       .  S
C2581      C2582   1.407       .  A
C2581      C2586   1.400       .  A
C2581      H2588   1.081       .  S
C2582      C2583   1.407       .  A
C2583      C2584   1.400       .  A
C2583     Br2590   1.918       .  S
C2584      C2585   1.409       .  A
C2584      H2589   1.084       .  S
C2585      C2586   1.405       .  A
C2586     Br2587   1.914       .  S
C2591      C2592   1.401       .  A
C2591      C2596   1.405       .  A
C2591      H2598   1.084       .  S
C2592      C2593   1.412       .  A
C2593      C2594   1.402       .  A
C2593     Br2600   1.922       .  S
C2594      C2595   1.406       .  A
C2594      H2599   1.084       .  S
C2595      C2596   1.417       .  A
C2596     Br2597   1.919       .  S
C2601      C2602   1.402       .  A
C2601      C2606   1.402       .  A
C2601      H2608   1.083       .  S
C2602      C2603   1.403       .  A
C2603      C2604   1.405       .  A
C2603     Br2610   1.917       .  S
C2604      C2605   1.413       .  A
C2604      H2609   1.082       .  S
C2605      C2606   1.418       .  A
C2606     Br2607   1.921       .  S
C2611      C2612   1.396       .  A
C2611      C2616   1.396       .  A
C2611      H2618   1.083       .  S
C2612      C2613   1.406       .  A
C2613      C2614   1.400       .  A
C2613     Br2620   1.921       .  S
C2614      C2615   1.405       .  A
C2614      H2619   1.084       .  S
C2615      C2616   1.408       .  A
C2616     Br2617   1.913       .  S
C2621      C2622   1.406       .  A
C2621      C2626   1.402       .  A
C2621      H2628   1.083       .  S
C2622      C2623   1.426       .  A
C2623      C2624   1.404       .  A
C2623     Br2630   1.916       .  S
C2624      C2625   1.401       .  A
C2624      H2629   1.084       .  S
C2625      C2626   1.416       .  A
C2626     Br2627   1.921       .  S
C2631      C2632   1.401       .  A
C2631      C2636   1.396       .  A
C2631      H2638   1.079       .  S
C2632      C2633   1.411       .  A
C2633      C2634   1.404       .  A
C2633     Br2640   1.913       .  S
C2634      C2635   1.415       .  A
C2634      H2639   1.081       .  S
C2635      C2636   1.428       .  A
C2636     Br2637   1.921       .  S
C2641      C2642   1.409       .  A
C2641      C2646   1.408       .  A
C2641      H2648   1.082       .  S
C2642      C2643   1.409       .  A
C2643      C2644   1.402       .  A
C2643     Br2650   1.920       .  S
C2644      C2645   1.411       .  A
C2644      H2649   1.084       .  S
C2645      C2646   1.416       .  A
C2646     Br2647   1.920       .  S
C2651      C2652   1.410       .  A
C2651      C2656   1.410       .  A
C2651      H2658   1.080       .  S
C2652      C2653   1.421       .  A
C2653      C2654   1.401       .  A
C2653     Br2660   1.926       .  S
C2654      C2655   1.409       .  A
C2654      H2659   1.082       .  S
C2655      C2656   1.425       .  A
C2656     Br2657   1.923       .  S
C2661      C2662   1.407       .  A
C2661      C2666   1.400       .  A
C2661      H2668   1.083       .  S
C2662      C2663   1.409       .  A
C2663      C2664   1.401       .  A
C2663     Br2670   1.919       .  S
C2664      C2665   1.407       .  A
C2664      H2669   1.081       .  S
C2665      C2666   1.413       .  A
C2666     Br2667   1.922       .  S
C2671      C2672   1.407       .  A
C2671      C2676   1.405       .  A
C2671      H2678   1.084       .  S
C2672      C2673   1.415       .  A
C2673      C2674   1.399       .  A
C2673     Br2680   1.911       .  S
C2674      C2675   1.397       .  A
C2674      H2679   1.084       .  S
C2675      C2676   1.409       .  A
C2676     Br2677   1.919       .  S
C2681      C2682   1.405       .  A
C2681      C2686   1.404       .  A
C2681      H2688   1.082       .  S
C2682      C2683   1.406       .  A
C2683      C2684   1.402       .  A
C2683     Br2690   1.919       .  S
C2684      C2685   1.412       .  A
C2684      H2689   1.083       .  S
C2685      C2686   1.416       .  A
C2686     Br2687   1.920       .  S
C2691      C2692   1.411       .  A
C2691      C2696   1.405       .  A
C2691      H2698   1.083       .  S
C2692      C2693   1.425       .  A
C2693      C2694   1.409       .  A
C2693     Br2700   1.923       .  S
C2694      C2695   1.412       .  A
C2694      H2699   1.068       .  S
C2695      C2696   1.419       .  A
C2696     Br2697   1.923       .  S
C2701      C2702   1.401       .  A
C2701      C2706   1.402       .  A
C2701      H2708   1.083       .  S
C2702      C2703   1.407       .  A
C2703      C2704   1.405       .  A
C2703     Br2710   1.918       .  S
C2704      C2705   1.410       .  A
C2704      H2709   1.083       .  S
C2705      C2706   1.417       .  A
C2706     Br2707   1.919       .  S
C2711      C2712   1.410       .  A
C2711      C2716   1.402       .  A
C2711      H2718   1.079       .  S
C2712      C2713   1.406       .  A
C2713      C2714   1.400       .  A
C2713     Br2720   1.906       .  S
C2714      C2715   1.406       .  A
C2714      H2719   1.083       .  S
C2715      C2716   1.409       .  A
C2716     Br2717   1.920       .  S
C2721      C2722   1.399       .  A
C2721      C2726   1.402       .  A
C2721      H2728   1.076       .  S
C2722      C2723   1.412       .  A
C2723      C2724   1.401       .  A
C2723     Br2730   1.915       .  S
C2724      C2725   1.405       .  A
C2724      H2729   1.084       .  S
C2725      C2726   1.415       .  A
C2726     Br2727   1.919       .  S
C2731      C2732   1.409       .  A
C2731      C2736   1.398       .  A
C2731      H2738   1.083       .  S
C2732      C2733   1.420       .  A
C2733      C2734   1.404       .  A
C2733     Br2740   1.915       .  S
C2734      C2735   1.403       .  A
C2734      H2739   1.085       .  S
C2735      C2736   1.411       .  A
C2736     Br2737   1.917       .  S
C2741      C2742   1.408       .  A
C2741      C2746   1.403       .  A
C2741      H2748   1.076       .  S
C2742      C2743   1.410       .  A
C2743      C2744   1.403       .  A
C2743     Br2750   1.914       .  S
C2744      C2745   1.408       .  A
C2744      H2749   1.084       .  S
C2745      C2746   1.412       .  A
C2746     Br2747   1.922       .  S
C2751      C2752   1.415       .  A
C2751      C2756   1.404       .  A
C2751      H2758   1.081       .  S
C2752      C2753   1.415       .  A
C2753      C2754   1.402       .  A
C2753     Br2760   1.918       .  S
C2754      C2755   1.414       .  A
C2754      H2759   1.081       .  S
C2755      C2756   1.413       .  A
C2756     Br2757   1.915       .  S
C2761      C2762   1.405       .  A
C2761      C2766   1.402       .  A
C2761      H2768   1.084       .  S
C2762      C2763   1.405       .  A
C2763      C2764   1.403       .  A
C2763     Br2770   1.917       .  S
C2764      C2765   1.405       .  A
C2764      H2769   1.079       .  S
C2765      C2766   1.407       .  A
C2766     Br2767   1.918       .  S
C2771      C2772   1.405       .  A
C2771      C2776   1.400       .  A
C2771      H2778   1.083       .  S
C2772      C2773   1.413       .  A
C2773      C2774   1.399       .  A
C2773     Br2780   1.915       .  S
C2774      C2775   1.401       .  A
C2774      H2779   1.083       .  S
C2775      C2776   1.409       .  A
C2776     Br2777   1.914       .  S
C2781      C2782   1.408       .  A
C2781      C2786   1.405       .  A
C2781      H2788   1.082       .  S
C2782      C2783   1.418       .  A
C2783      C2784   1.400       .  A
C2783     Br2790   1.920       .  S
C2784      C2785   1.402       .  A
C2784      H2789   1.084       .  S
C2785      C2786   1.410       .  A
C2786     Br2787   1.917       .  S
C2791      C2792   1.407       .  A
C2791      C2796   1.404       .  A
C2791      H2798   1.085       .  S
C2792      C2793   1.424       .  A
C2793      C2794   1.404       .  A
C2793     Br2800   1.925       .  S
C2794      C2795   1.407       .  A
C2794      H2799   1.077       .  S
C2795      C2796   1.421       .  A
C2796     Br2797   1.924       .  S
C2801      C2802   1.404       .  A
C2801      C2806   1.408       .  A
C2801      H2808   1.083       .  S
C2802      C2803   1.411       .  A
C2803      C2804   1.398       .  A
C2803     Br2810   1.920       .  S
C2804      C2805   1.402       .  A
C2804      H2809   1.083       .  S
C2805      C2806   1.415       .  A
C2806     Br2807   1.918       .  S
C2811      C2812   1.402       .  A
C2811      C2816   1.396       .  A
C2811      H2818   1.131       .  S
C2812      C2813   1.407       .  A
C2813      C2814   1.407       .  A
C2813     Br2820   1.917       .  S
C2814      C2815   1.412       .  A
C2814      H2819   1.066       .  S
C2815      C2816   1.413       .  A
C2816     Br2817   1.920       .  S
C2821      C2822   1.405       .  A
C2821      C2826   1.402       .  A
C2821      H2828   1.084       .  S
C2822      C2823   1.418       .  A
C2823      C2824   1.401       .  A
C2823     Br2830   1.908       .  S
C2824      C2825   1.399       .  A
C2824      H2829   1.084       .  S
C2825      C2826   1.417       .  A
C2826     Br2827   1.923       .  S
C2831      C2832   1.410       .  A
C2831      C2836   1.396       .  A
C2831      H2838   1.082       .  S
C2832      C2833   1.422       .  A
C2833      C2834   1.401       .  A
C2833     Br2840   1.915       .  S
C2834      C2835   1.401       .  A
C2834      H2839   1.084       .  S
C2835      C2836   1.409       .  A
C2836     Br2837   1.921       .  S
C2841      C2842   1.406       .  A
C2841      C2846   1.407       .  A
C2841      H2848   1.083       .  S
C2842      C2843   1.414       .  A
C2843      C2844   1.408       .  A
C2843     Br2850   1.919       .  S
C2844      C2845   1.405       .  A
C2844      H2849   1.083       .  S
C2845      C2846   1.413       .  A
C2846     Br2847   1.921       .  S
C2851      C2852   1.412       .  A
C2851      C2856   1.407       .  A
C2851      H2858   1.078       .  S
C2852      C2853   1.419       .  A
C2853      C2854   1.401       .  A
C2853     Br2860   1.927       .  S
C2854      C2855   1.411       .  A
C2854      H2859   1.082       .  S
C2855      C2856   1.421       .  A
C2856     Br2857   1.922       .  S
C2861      C2862   1.404       .  A
C2861      C2866   1.398       .  A
C2861      H2868   1.082       .  S
C2862      C2863   1.404       .  A
C2863      C2864   1.396       .  A
C2863     Br2870   1.916       .  S
C2864      C2865   1.401       .  A
C2864      H2869   1.078       .  S
C2865      C2866   1.404       .  A
C2866     Br2867   1.920       .  S
C2871      C2872   1.406       .  A
C2871      C2876   1.398       .  A
C2871      H2878   1.083       .  S
C2872      C2873   1.409       .  A
C2873      C2874   1.401       .  A
C2873     Br2880   1.915       .  S
C2874      C2875   1.405       .  A
C2874      H2879   1.081       .  S
C2875      C2876   1.409       .  A
C2876     Br2877   1.920       .  S
C2881      C2882   1.406       .  A
C2881      C2886   1.406       .  A
C2881      H2888   1.082       .  S
C2882      C2883   1.411       .  A
C2883      C2884   1.403       .  A
C2883     Br2890   1.914       .  S
C2884      C2885   1.407       .  A
C2884      H2889   1.083       .  S
C2885      C2886   1.416       .  A
C2886     Br2887   1.920       .  S
C2891      C2892   1.409       .  A
C2891      C2896   1.411       .  A
C2891      H2898   1.080       .  S
C2892      C2893   1.419       .  A
C2893      C2894   1.407       .  A
C2893     Br2900   1.924       .  S
C2894      C2895   1.412       .  A
C2894      H2899   1.083       .  S
C2895      C2896   1.427       .  A
C2896     Br2897   1.917       .  S
C2901      C2902   1.409       .  A
C2901      C2906   1.403       .  A
C2901      H2908   1.083       .  S
C2902      C2903   1.417       .  A
C2903      C2904   1.401       .  A
C2903     Br2910   1.922       .  S
C2904      C2905   1.402       .  A
C2904      H2909   1.084       .  S
C2905      C2906   1.407       .  A
C2906     Br2907   1.917       .  S
C2911      C2912   1.402       .  A
C2911      C2916   1.402       .  A
C2911      H2918   1.083       .  S
C2912      C2913   1.410       .  A
C2913      C2914   1.401       .  A
C2913     Br2920   1.915       .  S
C2914      C2915   1.402       .  A
C2914      H2919   1.082       .  S
C2915      C2916   1.409       .  A
C2916     Br2917   1.912       .  S
C2921      C2922   1.405       .  A
C2921      C2926   1.400       .  A
C2921      H2928   1.083       .  S
C2922      C2923   1.418       .  A
C2923      C2924   1.405       .  A
C2923     Br2930   1.919       .  S
C2924      C2925   1.400       .  A
C2924      H2929   1.084       .  S
C2925      C2926   1.410       .  A
C2926     Br2927   1.920       .  S
C2931      C2932   1.409       .  A
C2931      C2936   1.405       .  A
C2931      H2938   1.079       .  S
C2932      C2933   1.420       .  A
C2933      C2934   1.400       .  A
C2933     Br2940   1.924       .  S
C2934      C2935   1.407       .  A
C2934      H2939   1.081       .  S
C2935      C2936   1.423       .  A
C2936     Br2937   1.925       .  S
C2941      C2942   1.408       .  A
C2941      C2946   1.400       .  A
C2941      H2948   1.082       .  S
C2942      C2943   1.411       .  A
C2943      C2944   1.405       .  A
C2943     Br2950   1.921       .  S
C2944      C2945   1.414       .  A
C2944      H2949   1.083       .  S
C2945      C2946   1.406       .  A
C2946     Br2947   1.908       .  S
C2951      C2952   1.400       .  A
C2951      C2956   1.401       .  A
C2951      H2958   1.076       .  S
C2952      C2953   1.417       .  A
C2953      C2954   1.402       .  A
C2953     Br2960   1.922       .  S
C2954      C2955   1.403       .  A
C2954      H2959   1.084       .  S
C2955      C2956   1.412       .  A
C2956     Br2957   1.918       .  S
C2961      C2962   1.412       .  A
C2961      C2966   1.410       .  A
C2961      H2968   1.078       .  S
C2962      C2963   1.420       .  A
C2963      C2964   1.401       .  A
C2963     Br2970   1.919       .  S
C2964      C2965   1.409       .  A
C2964      H2969   1.084       .  S
C2965      C2966   1.424       .  A
C2966     Br2967   1.920       .  S
C2971      C2972   1.401       .  A
C2971      C2976   1.407       .  A
C2971      H2978   1.084       .  S
C2972      C2973   1.415       .  A
C2973      C2974   1.400       .  A
C2973     Br2980   1.910       .  S
C2974      C2975   1.401       .  A
C2974      H2979   1.084       .  S
C2975      C2976   1.422       .  A
C2976     Br2977   1.911       .  S
C2981      C2982   1.405       .  A
C2981      C2986   1.398       .  A
C2981      H2988   1.078       .  S
C2982      C2983   1.415       .  A
C2983      C2984   1.399       .  A
C2983     Br2990   1.920       .  S
C2984      C2985   1.403       .  A
C2984      H2989   1.085       .  S
C2985      C2986   1.408       .  A
C2986     Br2987   1.919       .  S
C2991      C2992   1.406       .  A
C2991      C2996   1.409       .  A
C2991      H2998   1.083       .  S
C2992      C2993   1.406       .  A
C2993      C2994   1.404       .  A
C2993     Br3000   1.918       .  S
C2994      C2995   1.413       .  A
C2994      H2999   1.082       .  S
C2995      C2996   1.418       .  A
C2996     Br2997   1.920       .  S
C3001      C3002   1.412       .  A
C3001      C3006   1.411       .  A
C3001      H3008   1.075       .  S
C3002      C3003   1.418       .  A
C3003      C3004   1.400       .  A
C3003     Br3010   1.918       .  S
C3004      C3005   1.410       .  A
C3004      H3009   1.083       .  S
C3005      C3006   1.424       .  A
C3006     Br3007   1.915       .  S
C3011      C3012   1.412       .  A
C3011      C3016   1.406       .  A
C3011      H3018   1.078       .  S
C3012      C3013   1.413       .  A
C3013      C3014   1.402       .  A
C3013     Br3020   1.917       .  S
C3014      C3015   1.407       .  A
C3014      H3019   1.083       .  S
C3015      C3016   1.412       .  A
C3016     Br3017   1.921       .  S
C3021      C3022   1.412       .  A
C3021      C3026   1.404       .  A
C3021      H3028   1.080       .  S
C3022      C3023   1.421       .  A
C3023      C3024   1.405       .  A
C3023     Br3030   1.922       .  S
C3024      C3025   1.409       .  A
C3024      H3029   1.080       .  S
C3025      C3026   1.420       .  A
C3026     Br3027   1.926       .  S
C3031      C3032   1.406       .  A
C3031      C3036   1.401       .  A
C3031      H3038   1.083       .  S
C3032      C3033   1.405       .  A
C3033      C3034   1.397       .  A
C3033     Br3040   1.914       .  S
C3034      C3035   1.400       .  A
C3034      H3039   1.080       .  S
C3035      C3036   1.407       .  A
C3036     Br3037   1.922       .  S
C3041      C3042   1.406       .  A
C3041      C3046   1.406       .  A
C3041      H3048   1.081       .  S
C3042      C3043   1.417       .  A
C3043      C3044   1.406       .  A
C3043     Br3050   1.918       .  S
C3044      C3045   1.405       .  A
C3044      H3049   1.083       .  S
C3045      C3046   1.415       .  A
C3046     Br3047   1.920       .  S
C3051      C3052   1.409       .  A
C3051      C3056   1.400       .  A
C3051      H3058   1.082       .  S
C3052      C3053   1.422       .  A
C3053      C3054   1.402       .  A
C3053     Br3060   1.925       .  S
C3054      C3055   1.409       .  A
C3054      H3059   1.077       .  S
C3055      C3056   1.420       .  A
C3056     Br3057   1.925       .  S
C3061      C3062   1.411       .  A
C3061      C3066   1.401       .  A
C3061      H3068   1.083       .  S
C3062      C3063   1.418       .  A
C3063      C3064   1.404       .  A
C3063     Br3070   1.915       .  S
C3064      C3065   1.403       .  A
C3064      H3069   1.084       .  S
C3065      C3066   1.412       .  A
C3066     Br3067   1.919       .  S
C3071      C3072   1.404       .  A
C3071      C3076   1.404       .  A
C3071      H3078   1.083       .  S
C3072      C3073   1.419       .  A
C3073      C3074   1.402       .  A
C3073     Br3080   1.924       .  S
C3074      C3075   1.403       .  A
C3074      H3079   1.083       .  S
C3075      C3076   1.411       .  A
C3076     Br3077   1.917       .  S
C3081      C3082   1.407       .  A
C3081      C3086   1.393       .  A
C3081      H3088   1.080       .  S
C3082      C3083   1.420       .  A
C3083      C3084   1.405       .  A
C3083     Br3090   1.924       .  S
C3084      C3085   1.411       .  A
C3084      H3089   1.077       .  S
C3085      C3086   1.418       .  A
C3086     Br3087   1.922       .  S
C3091      C3092   1.393       .  A
C3091      C3096   1.394       .  A
C3091      H3098   1.083       .  S
C3092      C3093   1.412       .  A
C3093      C3094   1.399       .  A
C3093     Br3100   1.920       .  S
C3094      C3095   1.405       .  A
C3094      H3099   1.084       .  S
C3095      C3096   1.415       .  A
C3096     Br3097   1.905       .  S
C3101      C3102   1.410       .  A
C3101      C3106   1.399       .  A
C3101      H3108   1.083       .  S
C3102      C3103   1.420       .  A
C3103      C3104   1.394       .  A
C3103     Br3110   1.913       .  S
C3104      C3105   1.398       .  A
C3104      H3109   1.084       .  S
C3105      C3106   1.412       .  A
C3106     Br3107   1.920       .  S
C3111      C3112   1.407       .  A
C3111      C3116   1.404       .  A
C3111      H3118   1.082       .  S
C3112      C3113   1.414       .  A
C3113      C3114   1.400       .  A
C3113     Br3120   1.919       .  S
C3114      C3115   1.403       .  A
C3114      H3119   1.084       .  S
C3115      C3116   1.412       .  A
C3116     Br3117   1.918       .  S
