geometry optimzed in LAMMPS
_audit_creation_date              2020-11-30 
_audit_creation_method            'lammps2cif' 
_symmetry_space_group_name_H-M    'P1' 
_symmetry_Int_Tables_number       1 
_symmetry_cell_setting            triclinic 
loop_ 
_symmetry_equiv_pos_as_xyz 
  x,y,z 
_cell_length_a                    39.77716496 
_cell_length_b                    39.861156901974134 
_cell_length_c                    39.77855871805575 
_cell_angle_alpha                 90.06996671558495 
_cell_angle_beta                  90.07936369120186 
_cell_angle_gamma                 89.85334245384759 
loop_ 
_atom_site_label 
_atom_site_type_symbol 
_atom_site_fract_x 
_atom_site_fract_y 
_atom_site_fract_z 
_atom_site_charge 
N1          N  0.00585356  0.25002382  0.19690304    -0.36800
N2          N  0.99388826  0.29969048  0.24974151    -0.57400
N3          N  0.00342768  0.24762708  0.30060475    -0.36800
N4          N  0.01111940  0.19744462  0.24778240    -0.57400
C5          C  0.99791281  0.27692099  0.17774807     0.26800
C6          C  0.00461809  0.22257853  0.17686436     0.26800
C7          C  0.99528867  0.27369620  0.32087051     0.26800
C8          C  0.00242279  0.21933875  0.31940307     0.26800
C9          C  0.99414246  0.32061014  0.22296814     0.35400
C10         C  0.99230650  0.31935017  0.27744760     0.35400
C11         C  0.01751951  0.17877123  0.22015208     0.35400
C12         C  0.01760506  0.17773252  0.27464525     0.35400
C13         C  0.99268286  0.26657983  0.14484457    -0.22100
C14         C  0.99659739  0.23231974  0.14435027    -0.22100
C15         C  0.99018900  0.26186993  0.35326273    -0.22100
C16         C  0.99375469  0.22764938  0.35213805    -0.22100
C17         C  0.99147931  0.35360064  0.23366358    -0.23100
C18         C  0.99009524  0.35280956  0.26804683    -0.23100
C19         C  0.02808425  0.14694409  0.22949496    -0.23100
C20         C  0.02848046  0.14639696  0.26398185    -0.23100
C21         C  0.99591510  0.31067323  0.18881489    -0.18500
C22         C  0.01152658  0.18905904  0.18664126    -0.18500
C23         C  0.01086800  0.18642228  0.30853571    -0.18500
C24         C  0.99325407  0.30795543  0.31126937    -0.18500
H25         H  0.98635729  0.28201882  0.12338131     0.14400
H26         H  0.99408143  0.21644458  0.12240033     0.14400
H27         H  0.98431569  0.27616915  0.37560772     0.14400
H28         H  0.99105860  0.21095400  0.37338384     0.14400
H29         H  0.99056993  0.37598226  0.21830626     0.12700
H30         H  0.98800823  0.37454394  0.28424271     0.12700
H31         H  0.03448156  0.12613509  0.21319143     0.12700
H32         H  0.03511357  0.12504160  0.27942898     0.12700
H33         H  0.01459730  0.25083748  0.22137614     0.26000
H34         H  0.01243205  0.24954157  0.27634272     0.26000
O35         O  0.50199616  0.09490206  0.05430207    -0.80300
O36         O  0.49666361  0.40337605  0.05547195    -0.81900
O37         O  0.44231819  0.00559872  0.09392816    -0.78900
O38         O  0.05149423  0.99518891  0.09705270    -0.77300
O39         O  0.09349915  0.49789759  0.05802395    -0.79100
O40         O  0.40178868  0.50303906  0.05315979    -0.80000
O41         O  0.49550082  0.44453836  0.09576496    -0.81300
O42         O  0.50119151  0.05448624  0.09528118    -0.81600
Eu43       Eu  0.49767384  0.49952341  0.06752706     2.39200
O44         O  0.03260216  0.46547646  0.03438776    -0.89100
O45         O  0.46448013  0.03329651  0.03229542    -0.92700
C46         C  0.50271995  0.08523112  0.08533558     1.02000
C47         C  0.49554685  0.41353471  0.08629428     1.01800
C48         C  0.41141986  0.00583348  0.08408916     1.01700
C49         C  0.08274891  0.99567480  0.08865046     0.99600
H50         H  0.44952796  0.45102585  0.04724019     0.29300
O51         O  0.46400289  0.46467461  0.03346967    -1.01500
H52         H  0.04674759  0.04743810  0.04810099     0.29400
O53         O  0.03263268  0.03360432  0.03405998    -1.04100
O54         O  0.49840345  0.40186503  0.44522048    -0.81300
O55         O  0.50250272  0.09394693  0.44245642    -0.80800
O56         O  0.40329067  0.44315617  0.49689567    -0.79300
O57         O  0.09505256  0.44459404  0.50573327    -0.82600
O58         O  0.09477527  0.05507356  0.50051336    -0.80500
O59         O  0.40332831  0.05363788  0.50171244    -0.79100
O60         O  0.44585772  0.50211945  0.40245529    -0.80600
O61         O  0.05638702  0.49665941  0.40476945    -0.82500
O62         O  0.40423263  0.50328659  0.44230191    -0.79300
O63         O  0.09647880  0.49710531  0.44625989    -0.82000
O64         O  0.44474752  0.40365016  0.49511893    -0.77700
O65         O  0.44316446  0.09448811  0.49853414    -0.77700
O66         O  0.05367370  0.09476550  0.49567897    -0.77400
O67         O  0.05554763  0.40354429  0.50265182    -0.80900
O68         O  0.49756172  0.44210553  0.40418262    -0.80300
O69         O  0.50570778  0.05232603  0.40295600    -0.78600
Eu70       Eu  0.49959799  0.43073514  0.49998623     2.39800
Eu71       Eu  0.49896743  0.06722730  0.49855697     2.39600
Eu72       Eu  0.43069473  0.49882495  0.49831311     2.38400
Eu73       Eu  0.06765668  0.49928823  0.50124792     2.39900
Eu74       Eu  0.50053127  0.49786435  0.43125456     2.39800
O75         O  0.03363766  0.03225953  0.46597038    -0.93000
O76         O  0.46576556  0.46451524  0.46516098    -0.91900
C77         C  0.49719255  0.41125698  0.41418888     1.02100
C78         C  0.50539946  0.08347895  0.41178704     1.00900
C79         C  0.41358468  0.41239069  0.49508207     1.00200
C80         C  0.08632864  0.41355226  0.50545475     1.02300
C81         C  0.08473425  0.08581754  0.49747780     1.01200
C82         C  0.41232893  0.08460530  0.50081840     1.00000
C83         C  0.41479159  0.50418803  0.41160363     1.00100
C84         C  0.08717677  0.49662185  0.41510300     1.02700
H85         H  0.45208348  0.04704310  0.45005018     0.30100
O86         O  0.46552501  0.03264741  0.46428461    -1.05200
H87         H  0.04881551  0.44999474  0.45284087     0.32100
O88         O  0.03459959  0.46431692  0.46632456    -1.07800
N89         N  0.25089411  0.00501806  0.30193141    -0.36800
N90         N  0.19824895  0.99669577  0.25175967    -0.57400
N91         N  0.24808349  0.00264515  0.19850763    -0.36800
N92         N  0.30023745  0.01495718  0.24864245    -0.57400
C93         C  0.22344932  0.00663142  0.32193644     0.26800
C94         C  0.27777026  0.01382234  0.32075522     0.26800
C95         C  0.21940651  0.00365489  0.18009348     0.26800
C96         C  0.27388933  0.01044592  0.17781855     0.26800
C97         C  0.18042335  0.98935961  0.27962135     0.35400
C98         C  0.17906727  0.98759312  0.22529238     0.35400
C99         C  0.32129155  0.01603470  0.27539877     0.35400
C100        C  0.31984301  0.01546264  0.22086702     0.35400
C101        C  0.23307782  0.01629211  0.35403071    -0.22100
C102        C  0.26739318  0.02032824  0.35341504    -0.22100
C103        C  0.22718445  0.01206560  0.14720481    -0.22100
C104        C  0.26149204  0.01515076  0.14552239    -0.22100
C105        C  0.14970841  0.97550526  0.27086928    -0.23100
C106        C  0.14895719  0.97412194  0.23641410    -0.23100
C107        C  0.35425686  0.01872570  0.26457416    -0.23100
C108        C  0.35334173  0.01867757  0.23016722    -0.23100
C109        C  0.19032650  0.99742295  0.31273188    -0.18500
C110        C  0.31155854  0.01477454  0.30964070    -0.18500
C111        C  0.30833587  0.01274293  0.18710800    -0.18500
C112        C  0.18676647  0.99464413  0.19135710    -0.18500
H113        H  0.21716668  0.01931706  0.37588484     0.14400
H114        H  0.28283637  0.02732483  0.37468878     0.14400
H115        H  0.21010733  0.01458141  0.12615985     0.14400
H116        H  0.27541191  0.02046782  0.12285103     0.14400
H117        H  0.12975370  0.96765203  0.28755242     0.12700
H118        H  0.12821105  0.96516997  0.22125487     0.12700
H119        H  0.37670558  0.02055754  0.27987062     0.12700
H120        H  0.37505792  0.02047053  0.21392783     0.12700
H121        H  0.25189829  0.99479005  0.27804439     0.26000
H122        H  0.25045243  0.99359229  0.22275065     0.26000
N123        N  0.24991919  0.29960203  0.49845623    -0.36800
N124        N  0.19822636  0.24919376  0.49819224    -0.57400
N125        N  0.24880907  0.19829851  0.49879229    -0.36800
N126        N  0.30052364  0.24871804  0.49779362    -0.57400
C127        C  0.22302540  0.31656689  0.51038977     0.26800
C128        C  0.27774163  0.31677610  0.50749010     0.26800
C129        C  0.22112987  0.18098060  0.50788063     0.26800
C130        C  0.27590874  0.18096993  0.50971032     0.26800
C131        C  0.18031160  0.27686194  0.49037123     0.35400
C132        C  0.17989799  0.22250548  0.48834004     0.35400
C133        C  0.31873701  0.27533100  0.48764329     0.35400
C134        C  0.31848416  0.22106890  0.49005924     0.35400
C135        C  0.23395654  0.34458677  0.52805053    -0.22100
C136        C  0.26862764  0.34489890  0.52587748    -0.22100
C137        C  0.23062236  0.15236164  0.52529645    -0.22100
C138        C  0.26534692  0.15238827  0.52653445    -0.22100
C139        C  0.15046834  0.26784880  0.47476965    -0.23100
C140        C  0.15024061  0.23323764  0.47339143    -0.23100
C141        C  0.34835556  0.26455592  0.47271966    -0.23100
C142        C  0.34828050  0.23000524  0.47444805    -0.23100
C143        C  0.18932321  0.30933113  0.50141033    -0.18500
C144        C  0.31051497  0.30870453  0.49643003    -0.18500
C145        C  0.30944446  0.18854889  0.50064566    -0.18500
C146        C  0.18814349  0.18917104  0.49735269    -0.18500
H147        H  0.21851699  0.36361047  0.53988513     0.14400
H148        H  0.28515167  0.36398582  0.53591233     0.14400
H149        H  0.21430439  0.13300769  0.53506330     0.14400
H150        H  0.28103158  0.13295370  0.53733536     0.14400
H151        H  0.13049749  0.28437819  0.46647374     0.12700
H152        H  0.13000259  0.21777634  0.46390453     0.12700
H153        H  0.36848265  0.27996935  0.46301932     0.12700
H154        H  0.36822763  0.21345388  0.46615233     0.12700
H155        H  0.24918051  0.28009405  0.48098459     0.26000
H156        H  0.24927547  0.21817678  0.48180357     0.26000
C157        C  0.36670953  0.33150486  0.01453798    -0.02000
C158        C  0.33701399  0.33527599  0.49554158     0.07600
C159        C  0.33334441  0.36365652  0.47460873    -0.02200
C160        C  0.35782657  0.38922557  0.47487251    -0.02200
C161        C  0.38798078  0.38504068  0.49347771     0.07800
C162        C  0.39330100  0.35427744  0.01068691    -0.02400
Br163      Br  0.43717818  0.34030155  0.02654664    -0.00900
Br164      Br  0.37059732  0.29628792  0.04768302    -0.01000
Br165      Br  0.35090867  0.42823164  0.44683919    -0.00900
Br166      Br  0.29563497  0.36684812  0.44416777    -0.00900
C167        C  0.35415717  0.10554924  0.48559680    -0.02000
C168        C  0.38528853  0.11054517  0.50236792     0.07600
C169        C  0.39003394  0.14062067  0.02088896    -0.02200
C170        C  0.36412303  0.16473540  0.02249243    -0.02200
C171        C  0.33551720  0.16157425  0.50173243     0.07800
C172        C  0.33147334  0.13234962  0.48224574    -0.02400
Br173      Br  0.29635770  0.12970314  0.44879059    -0.00900
Br174      Br  0.33991206  0.06215334  0.46901946    -0.01000
Br175      Br  0.36719003  0.20120448  0.05437875    -0.00900
Br176      Br  0.43079177  0.14868428  0.04610374    -0.00900
C177        C  0.10807484  0.35610746  0.02292692    -0.02000
C178        C  0.11369455  0.38776496  0.50762859     0.07600
C179        C  0.14600079  0.39416968  0.49388544    -0.02200
C180        C  0.16815509  0.36743330  0.48783660    -0.02200
C181        C  0.16315022  0.33631397  0.50382204     0.07800
C182        C  0.13393001  0.33181069  0.02344817    -0.02400
Br183      Br  0.13017066  0.29369968  0.05308173    -0.00900
Br184      Br  0.06643775  0.34603081  0.04576897    -0.01000
Br185      Br  0.20404382  0.37358143  0.45579148    -0.00900
Br186      Br  0.16360450  0.43899933  0.48754834    -0.00900
C187        C  0.13219024  0.16659179  0.01648660    -0.02000
C188        C  0.16154465  0.16264963  0.49702506     0.07600
C189        C  0.16505775  0.13380029  0.47664127    -0.02200
C190        C  0.14055441  0.10830213  0.47746024    -0.02200
C191        C  0.11059711  0.11283544  0.49617665     0.07800
C192        C  0.10563794  0.14359158  0.01350192    -0.02400
Br193      Br  0.06234839  0.15667655  0.03146071    -0.00900
Br194      Br  0.12895966  0.20210482  0.04939699    -0.01000
Br195      Br  0.14732592  0.06860640  0.45029573    -0.00900
Br196      Br  0.20279044  0.12954670  0.44642559    -0.00900
C197        C  0.38059671  0.47944944  0.36539182    -0.02000
C198        C  0.38935444  0.50762010  0.38481712     0.07600
C199        C  0.37402255  0.03893131  0.37828301    -0.02200
C200        C  0.34878700  0.04153958  0.35352626    -0.02200
C201        C  0.33863344  0.01280554  0.33551272     0.07800
C202        C  0.35490502  0.48184240  0.34124483    -0.02400
Br203      Br  0.34201356  0.44257743  0.31588282    -0.00900
Br204      Br  0.40447108  0.43773729  0.37126041    -0.01000
Br205      Br  0.32833058  0.08441291  0.34393091    -0.00900
Br206      Br  0.38907837  0.07868958  0.40151089    -0.00900
C207        C  0.11773389  0.02490114  0.36821213    -0.02000
C208        C  0.11372616  0.49664342  0.38911364     0.07600
C209        C  0.13477637  0.46845099  0.38462410    -0.02200
C210        C  0.15978217  0.46864762  0.35964037    -0.02200
C211        C  0.16404776  0.99713035  0.33925630     0.07800
C212        C  0.14298017  0.02525196  0.34351730    -0.02400
Br213      Br  0.14889306  0.06428160  0.31545086    -0.00900
Br214      Br  0.08902230  0.06345641  0.37365439    -0.01000
Br215      Br  0.18774019  0.42965395  0.35250375    -0.00900
Br216      Br  0.12836516  0.42878639  0.41123745    -0.00900
C217        C  0.10531212  0.01476437  0.14483122    -0.02000
C218        C  0.10802147  0.99371440  0.11622984     0.07600
C219        C  0.13502252  0.47060111  0.11441960    -0.02200
C220        C  0.15926565  0.46932843  0.14020123    -0.02200
C221        C  0.15881687  0.99336726  0.16620782     0.07800
C222        C  0.13175273  0.01626151  0.16830944    -0.02400
Br223      Br  0.13126120  0.05071431  0.20262597    -0.00900
Br224      Br  0.06527796  0.04088513  0.15342994    -0.01000
Br225      Br  0.19284410  0.43417783  0.14032865    -0.00900
Br226      Br  0.13823157  0.43898426  0.07792391    -0.00900
C227        C  0.38387962  0.48444871  0.13629130    -0.02000
C228        C  0.38526171  0.00859781  0.11048693     0.07600
C229        C  0.36195744  0.03542112  0.11078684    -0.02200
C230        C  0.33866653  0.03836338  0.13734016    -0.02200
C231        C  0.33431473  0.01146502  0.15997634     0.07800
C232        C  0.35635372  0.48373573  0.15824556    -0.02400
Br233      Br  0.34908402  0.44454895  0.18581892    -0.00900
Br234      Br  0.42093006  0.45442943  0.14438406    -0.01000
Br235      Br  0.31414672  0.07977156  0.14369215    -0.00900
Br236      Br  0.36269032  0.06909793  0.07619845    -0.00900
C237        C  0.48582596  0.13406565  0.33314649    -0.00700
C238        C  0.51087387  0.15898938  0.33415248     0.07600
C239        C  0.03528754  0.15819337  0.35988031    -0.02200
C240        C  0.03268624  0.13460369  0.38613419    -0.02200
C241        C  0.50816372  0.10894918  0.38458559     0.07800
C242        C  0.48629742  0.10767458  0.35653711    -0.02400
Br243      Br  0.45743400  0.06966856  0.34879446    -0.00900
Br244      Br  0.44952683  0.13703272  0.30091810    -0.01000
Br245      Br  0.06397263  0.13694157  0.42310159    -0.00900
Br246      Br  0.07249612  0.18923195  0.35875893    -0.00900
C247        C  0.46784430  0.36291582  0.38579666    -0.02000
C248        C  0.49576423  0.38465885  0.38810161     0.07600
C249        C  0.02256030  0.38076467  0.36527431    -0.02200
C250        C  0.02274084  0.35394269  0.34234542    -0.02200
C251        C  0.49385021  0.33393663  0.33835326     0.07800
C252        C  0.46581396  0.33942433  0.35935210    -0.02400
Br253      Br  0.42442942  0.31548914  0.35129538    -0.00900
Br254      Br  0.43231190  0.36497224  0.41854369    -0.01000
Br255      Br  0.06279438  0.34428301  0.31654520    -0.00900
Br256      Br  0.05885566  0.41234677  0.36463072    -0.00900
C257        C  0.46506503  0.34665294  0.14688909    -0.02000
C258        C  0.49541501  0.33749026  0.16274899     0.07600
C259        C  0.02548767  0.35398031  0.15416544    -0.02200
C260        C  0.02523917  0.37933178  0.12961287    -0.02200
C261        C  0.49515416  0.38768385  0.11283792     0.07800
C262        C  0.46501591  0.37129693  0.12155527    -0.02400
Br263      Br  0.42352671  0.38280714  0.09931462    -0.00900
Br264      Br  0.42361444  0.32555411  0.16029430    -0.01000
Br265      Br  0.06617481  0.40264310  0.11889390    -0.00900
Br266      Br  0.06699308  0.34182455  0.17626621    -0.00900
C267        C  0.03898079  0.15117947  0.14397880    -0.02000
C268        C  0.50969694  0.16245061  0.16040497     0.07600
C269        C  0.47844268  0.14767432  0.15289983    -0.02200
C270        C  0.47647091  0.12165708  0.12912169    -0.02200
C271        C  0.50542638  0.11130813  0.11158025     0.07800
C272        C  0.03690958  0.12547807  0.11971304    -0.02400
Br273      Br  0.07750125  0.10799441  0.09967718    -0.00900
Br274      Br  0.08181800  0.17080242  0.15521925    -0.01000
Br275      Br  0.43437501  0.09907118  0.12185915    -0.00900
Br276      Br  0.43825861  0.16340447  0.17514866    -0.00900
N277        N  0.00585360  0.25002381  0.69690314    -0.36800
N278        N  0.99388828  0.29969054  0.74974156    -0.57400
N279        N  0.00342770  0.24762709  0.80060470    -0.36800
N280        N  0.01111938  0.19744458  0.74778248    -0.57400
C281        C  0.99791292  0.27692100  0.67774814     0.26800
C282        C  0.00461806  0.22257852  0.67686441     0.26800
C283        C  0.99528862  0.27369619  0.82087053     0.26800
C284        C  0.00242277  0.21933872  0.81940310     0.26800
C285        C  0.99414250  0.32061020  0.72296819     0.35400
C286        C  0.99230649  0.31935026  0.77744765     0.35400
C287        C  0.01751950  0.17877119  0.72015212     0.35400
C288        C  0.01760504  0.17773251  0.77464530     0.35400
C289        C  0.99268290  0.26657987  0.64484461    -0.22100
C290        C  0.99659736  0.23231971  0.64435026    -0.22100
C291        C  0.99018886  0.26186983  0.85326272    -0.22100
C292        C  0.99375462  0.22764927  0.85213808    -0.22100
C293        C  0.99147929  0.35360077  0.73366361    -0.23100
C294        C  0.99009521  0.35280973  0.76804693    -0.23100
C295        C  0.02808428  0.14694404  0.72949493    -0.23100
C296        C  0.02848044  0.14639701  0.76398183    -0.23100
C297        C  0.99591522  0.31067325  0.68881497    -0.18500
C298        C  0.01152654  0.18905904  0.68664132    -0.18500
C299        C  0.01086800  0.18642224  0.80853574    -0.18500
C300        C  0.99325407  0.30795546  0.81126941    -0.18500
H301        H  0.98635731  0.28201894  0.62338144     0.14400
H302        H  0.99408141  0.21644455  0.62240034     0.14400
H303        H  0.98431543  0.27616901  0.87560772     0.14400
H304        H  0.99105854  0.21095386  0.87338385     0.14400
H305        H  0.99056994  0.37598236  0.71830624     0.12700
H306        H  0.98800821  0.37454408  0.78424284     0.12700
H307        H  0.03448162  0.12613504  0.71319144     0.12700
H308        H  0.03511355  0.12504165  0.77942901     0.12700
H309        H  0.01459728  0.25083744  0.72137624     0.26000
H310        H  0.01243203  0.24954159  0.77634277     0.26000
O311        O  0.50199616  0.09490202  0.55430213    -0.80300
O312        O  0.49666361  0.40337608  0.55547199    -0.81900
O313        O  0.44231815  0.00559866  0.59392807    -0.78900
O314        O  0.05149421  0.99518886  0.59705280    -0.77300
O315        O  0.09349912  0.49789771  0.55802402    -0.79100
O316        O  0.40178865  0.50303901  0.55315968    -0.80000
O317        O  0.49550081  0.44453841  0.59576497    -0.81300
O318        O  0.50119149  0.05448623  0.59528127    -0.81600
Eu319      Eu  0.49767384  0.49952344  0.56752707     2.39200
O320        O  0.03260217  0.46547643  0.53438780    -0.89100
O321        O  0.46448015  0.03329653  0.53229548    -0.92700
C322        C  0.50271996  0.08523110  0.58533565     1.02000
C323        C  0.49554685  0.41353475  0.58629431     1.01800
C324        C  0.41141983  0.00583341  0.58408908     1.01700
C325        C  0.08274888  0.99567475  0.58865055     0.99600
H326        H  0.44952803  0.45102590  0.54723999     0.29300
O327        O  0.46400293  0.46467463  0.53346959    -1.01500
H328        H  0.04674759  0.04743803  0.54810103     0.29400
O329        O  0.03263267  0.03360428  0.53405999    -1.04100
O330        O  0.49840343  0.40186518  0.94522053    -0.81300
O331        O  0.50250272  0.09394690  0.94245640    -0.80800
O332        O  0.40329061  0.44315619  0.99689573    -0.79300
O333        O  0.09505243  0.44459406  0.00573341    -0.82600
O334        O  0.09477526  0.05507356  0.00051329    -0.80500
O335        O  0.40332834  0.05363787  0.00171255    -0.79100
O336        O  0.44585772  0.50211941  0.90245527    -0.80600
O337        O  0.05638702  0.49665940  0.90476946    -0.82500
O338        O  0.40423266  0.50328654  0.94230193    -0.79300
O339        O  0.09647876  0.49710531  0.94625991    -0.82000
O340        O  0.44474750  0.40365024  0.99511899    -0.77700
O341        O  0.44316445  0.09448813  0.99853425    -0.77700
O342        O  0.05367367  0.09476549  0.99567887    -0.77400
O343        O  0.05554755  0.40354426  0.00265174    -0.80900
O344        O  0.49756171  0.44210561  0.90418260    -0.80300
O345        O  0.50570779  0.05232603  0.90295595    -0.78600
Eu346      Eu  0.49959798  0.43073518  0.99998628     2.39800
Eu347      Eu  0.49896742  0.06722731  0.99855695     2.39600
Eu348      Eu  0.43069471  0.49882491  0.99831317     2.38400
Eu349      Eu  0.06765664  0.49928830  0.00124792     2.39900
Eu350      Eu  0.50053126  0.49786435  0.93125461     2.39800
O351        O  0.03363767  0.03225951  0.96597037    -0.93000
O352        O  0.46576551  0.46451517  0.96516097    -0.91900
C353        C  0.49719253  0.41125707  0.91418892     1.02100
C354        C  0.50539947  0.08347894  0.91178702     1.00900
C355        C  0.41358465  0.41239073  0.99508213     1.00200
C356        C  0.08632855  0.41355226  0.00545477     1.02300
C357        C  0.08473422  0.08581754  0.99747769     1.01200
C358        C  0.41232893  0.08460530  0.00081853     1.00000
C359        C  0.41479159  0.50418802  0.91160362     1.00100
C360        C  0.08717676  0.49662188  0.91510301     1.02700
H361        H  0.45208342  0.04704328  0.95005017     0.30100
O362        O  0.46552499  0.03264747  0.96428462    -1.05200
H363        H  0.04881549  0.44999469  0.95284101     0.32100
O364        O  0.03459956  0.46431691  0.96632466    -1.07800
N365        N  0.25089409  0.00501825  0.80193137    -0.36800
N366        N  0.19824891  0.99669588  0.75175969    -0.57400
N367        N  0.24808346  0.00264531  0.69850767    -0.36800
N368        N  0.30023746  0.01495712  0.74864238    -0.57400
C369        C  0.22344931  0.00663161  0.82193645     0.26800
C370        C  0.27777027  0.01382244  0.82075516     0.26800
C371        C  0.21940649  0.00365498  0.68009341     0.26800
C372        C  0.27388930  0.01044602  0.67781849     0.26800
C373        C  0.18042337  0.98935965  0.77962138     0.35400
C374        C  0.17906731  0.98759313  0.72529240     0.35400
C375        C  0.32129159  0.01603465  0.77539870     0.35400
C376        C  0.31984304  0.01546257  0.72086694     0.35400
C377        C  0.23307782  0.01629226  0.85403076    -0.22100
C378        C  0.26739321  0.02032827  0.85341497    -0.22100
C379        C  0.22718442  0.01206556  0.64720472    -0.22100
C380        C  0.26149200  0.01515073  0.64552237    -0.22100
C381        C  0.14970851  0.97550522  0.77086929    -0.23100
C382        C  0.14895731  0.97412190  0.73641416    -0.23100
C383        C  0.35425697  0.01872564  0.76457415    -0.23100
C384        C  0.35334181  0.01867750  0.73016716    -0.23100
C385        C  0.19032649  0.99742309  0.81273190    -0.18500
C386        C  0.31155856  0.01477460  0.80964063    -0.18500
C387        C  0.30833586  0.01274292  0.68710793    -0.18500
C388        C  0.18676648  0.99464412  0.69135710    -0.18500
H389        H  0.21716674  0.01931728  0.87588490     0.14400
H390        H  0.28283649  0.02732476  0.87468869     0.14400
H391        H  0.21010737  0.01458126  0.62615968     0.14400
H392        H  0.27541190  0.02046766  0.62285098     0.14400
H393        H  0.12975376  0.96765192  0.78755236     0.12700
H394        H  0.12821116  0.96516985  0.72125498     0.12700
H395        H  0.37670564  0.02055748  0.77987065     0.12700
H396        H  0.37505797  0.02047045  0.71392776     0.12700
H397        H  0.25189821  0.99479026  0.77804437     0.26000
H398        H  0.25045237  0.99359249  0.72275059     0.26000
N399        N  0.24991914  0.29960213  0.99845633    -0.36800
N400        N  0.19822638  0.24919376  0.99819212    -0.57400
N401        N  0.24880905  0.19829846  0.99879216    -0.36800
N402        N  0.30052361  0.24871805  0.99779375    -0.57400
C403        C  0.22302536  0.31656694  0.01038980     0.26800
C404        C  0.27774161  0.31677606  0.00749014     0.26800
C405        C  0.22112987  0.18098057  0.00788055     0.26800
C406        C  0.27590874  0.18096992  0.00971026     0.26800
C407        C  0.18031162  0.27686195  0.99037120     0.35400
C408        C  0.17989797  0.22250546  0.98834000     0.35400
C409        C  0.31873697  0.27533099  0.98764336     0.35400
C410        C  0.31848414  0.22106894  0.99005930     0.35400
C411        C  0.23395652  0.34458684  0.02805055    -0.22100
C412        C  0.26862762  0.34489886  0.02587753    -0.22100
C413        C  0.23062240  0.15236167  0.02529646    -0.22100
C414        C  0.26534697  0.15238828  0.02653444    -0.22100
C415        C  0.15046834  0.26784881  0.97476969    -0.23100
C416        C  0.15024056  0.23323765  0.97339147    -0.23100
C417        C  0.34835554  0.26455601  0.97271965    -0.23100
C418        C  0.34828043  0.23000533  0.97444801    -0.23100
C419        C  0.18932319  0.30933116  0.00141037    -0.18500
C420        C  0.31051493  0.30870451  0.99643004    -0.18500
C421        C  0.30944447  0.18854893  0.00064566    -0.18500
C422        C  0.18814346  0.18917101  0.99735266    -0.18500
H423        H  0.21851699  0.36361058  0.03988509     0.14400
H424        H  0.28515167  0.36398572  0.03591239     0.14400
H425        H  0.21430444  0.13300776  0.03506345     0.14400
H426        H  0.28103165  0.13295377  0.03733539     0.14400
H427        H  0.13049750  0.28437825  0.96647383     0.12700
H428        H  0.13000250  0.21777638  0.96390459     0.12700
H429        H  0.36848257  0.27996946  0.96301927     0.12700
H430        H  0.36822751  0.21345397  0.96615217     0.12700
H431        H  0.24918041  0.28009413  0.98098457     0.26000
H432        H  0.24927544  0.21817672  0.98180342     0.26000
C433        C  0.36670953  0.33150491  0.51453800    -0.02000
C434        C  0.33701400  0.33527592  0.99554154     0.07600
C435        C  0.33334444  0.36365644  0.97460870    -0.02200
C436        C  0.35782656  0.38922553  0.97487255    -0.02200
C437        C  0.38798076  0.38504068  0.99347775     0.07800
C438        C  0.39330101  0.35427744  0.51068690    -0.02400
Br439      Br  0.43717816  0.34030152  0.52654672    -0.00900
Br440      Br  0.37059733  0.29628785  0.54768291    -0.01000
Br441      Br  0.35090865  0.42823159  0.94683929    -0.00900
Br442      Br  0.29563494  0.36684808  0.94416784    -0.00900
C443        C  0.35415718  0.10554925  0.98559684    -0.02000
C444        C  0.38528850  0.11054514  0.00236807     0.07600
C445        C  0.39003397  0.14062069  0.52088884    -0.02200
C446        C  0.36412300  0.16473535  0.52249246    -0.02200
C447        C  0.33551725  0.16157431  0.00173237     0.07800
C448        C  0.33147341  0.13234967  0.98224569    -0.02400
Br449      Br  0.29635768  0.12970308  0.94879067    -0.00900
Br450      Br  0.33991205  0.06215331  0.96901957    -0.01000
Br451      Br  0.36719001  0.20120441  0.55437884    -0.00900
Br452      Br  0.43079179  0.14868424  0.54610362    -0.00900
C453        C  0.10807492  0.35610744  0.52292693    -0.02000
C454        C  0.11369450  0.38776499  0.00762862     0.07600
C455        C  0.14600077  0.39416969  0.99388547    -0.02200
C456        C  0.16815505  0.36743331  0.98783657    -0.02200
C457        C  0.16315020  0.33631400  0.00382207     0.07800
C458        C  0.13393008  0.33181067  0.52344821    -0.02400
Br459      Br  0.13017069  0.29369964  0.55308181    -0.00900
Br460      Br  0.06643794  0.34603077  0.54576909    -0.01000
Br461      Br  0.20404378  0.37358136  0.95579137    -0.00900
Br462      Br  0.16360449  0.43899931  0.98754843    -0.00900
C463        C  0.13219024  0.16659186  0.51648653    -0.02000
C464        C  0.16154463  0.16264959  0.99702506     0.07600
C465        C  0.16505769  0.13380028  0.97664117    -0.02200
C466        C  0.14055434  0.10830214  0.97746012    -0.02200
C467        C  0.11059704  0.11283546  0.99617654     0.07800
C468        C  0.10563798  0.14359160  0.51350197    -0.02400
Br469      Br  0.06234839  0.15667653  0.53146062    -0.00900
Br470      Br  0.12895983  0.20210482  0.54939693    -0.01000
Br471      Br  0.14732592  0.06860630  0.95029580    -0.00900
Br472      Br  0.20279040  0.12954664  0.94642547    -0.00900
C473        C  0.38059665  0.47944948  0.86539185    -0.02000
C474        C  0.38935439  0.50762015  0.88481716     0.07600
C475        C  0.37402252  0.03893138  0.87828303    -0.02200
C476        C  0.34878703  0.04153967  0.85352621    -0.02200
C477        C  0.33863349  0.01280566  0.83551263     0.07800
C478        C  0.35490502  0.48184244  0.84124481    -0.02400
Br479      Br  0.34201354  0.44257737  0.81588291    -0.00900
Br480      Br  0.40447109  0.43773740  0.87126051    -0.01000
Br481      Br  0.32833054  0.08441293  0.84393100    -0.00900
Br482      Br  0.38907836  0.07868957  0.90151101    -0.00900
C483        C  0.11773381  0.02490119  0.86821210    -0.02000
C484        C  0.11372618  0.49664349  0.88911366     0.07600
C485        C  0.13477636  0.46845106  0.88462409    -0.02200
C486        C  0.15978217  0.46864765  0.85964037    -0.02200
C487        C  0.16404777  0.99713049  0.83925633     0.07800
C488        C  0.14298010  0.02525208  0.84351727    -0.02400
Br489      Br  0.14889282  0.06428172  0.81545075    -0.00900
Br490      Br  0.08902205  0.06345634  0.87365425    -0.01000
Br491      Br  0.18774019  0.42965392  0.85250385    -0.00900
Br492      Br  0.12836514  0.42878651  0.91123738    -0.00900
C493        C  0.10531209  0.01476434  0.64483131    -0.02000
C494        C  0.10802144  0.99371436  0.61622995     0.07600
C495        C  0.13502252  0.47060118  0.61441966    -0.02200
C496        C  0.15926563  0.46932849  0.64020130    -0.02200
C497        C  0.15881687  0.99336719  0.66620786     0.07800
C498        C  0.13175275  0.01626148  0.66830949    -0.02400
Br499      Br  0.13126120  0.05071423  0.70262606    -0.00900
Br500      Br  0.06527799  0.04088526  0.65343003    -0.01000
Br501      Br  0.19284413  0.43417798  0.64032855    -0.00900
Br502      Br  0.13823154  0.43898423  0.57792402    -0.00900
C503        C  0.38387958  0.48444862  0.63629120    -0.02000
C504        C  0.38526171  0.00859777  0.61048686     0.07600
C505        C  0.36195746  0.03542109  0.61078676    -0.02200
C506        C  0.33866653  0.03836334  0.63734006    -0.02200
C507        C  0.33431472  0.01146498  0.65997624     0.07800
C508        C  0.35635369  0.48373566  0.65824550    -0.02400
Br509      Br  0.34908403  0.44454893  0.68581898    -0.00900
Br510      Br  0.42093004  0.45442936  0.64438393    -0.01000
Br511      Br  0.31414671  0.07977150  0.64369202    -0.00900
Br512      Br  0.36269031  0.06909787  0.57619832    -0.00900
C513        C  0.48582593  0.13406566  0.83314652    -0.00700
C514        C  0.51087390  0.15898932  0.83415246     0.07600
C515        C  0.03528752  0.15819337  0.85988038    -0.02200
C516        C  0.03268621  0.13460371  0.88613426    -0.02200
C517        C  0.50816370  0.10894920  0.88458560     0.07800
C518        C  0.48629736  0.10767461  0.85653716    -0.02400
Br519      Br  0.45743399  0.06966854  0.84879455    -0.00900
Br520      Br  0.44952678  0.13703287  0.80091820    -0.01000
Br521      Br  0.06397285  0.13694149  0.92310148    -0.00900
Br522      Br  0.07249612  0.18923191  0.85875901    -0.00900
C523        C  0.46784428  0.36291588  0.88579674    -0.02000
C524        C  0.49576423  0.38465891  0.88810170     0.07600
C525        C  0.02256029  0.38076473  0.86527435    -0.02200
C526        C  0.02274082  0.35394276  0.84234544    -0.02200
C527        C  0.49385020  0.33393668  0.83835334     0.07800
C528        C  0.46581396  0.33942436  0.85935221    -0.02400
Br529      Br  0.42442944  0.31548909  0.85129551    -0.00900
Br530      Br  0.43231190  0.36497220  0.91854380    -0.01000
Br531      Br  0.06279434  0.34428300  0.81654513    -0.00900
Br532      Br  0.05885561  0.41234693  0.86463060    -0.00900
C533        C  0.46506504  0.34665294  0.64688916    -0.02000
C534        C  0.49541502  0.33749027  0.66274907     0.07600
C535        C  0.02548770  0.35398033  0.65416549    -0.02200
C536        C  0.02523919  0.37933180  0.62961293    -0.02200
C537        C  0.49515416  0.38768390  0.61283800     0.07800
C538        C  0.46501591  0.37129692  0.62155532    -0.02400
Br539      Br  0.42352675  0.38280705  0.59931453    -0.00900
Br540      Br  0.42361446  0.32555407  0.66029439    -0.01000
Br541      Br  0.06617483  0.40264306  0.61889399    -0.00900
Br542      Br  0.06699313  0.34182446  0.67626612    -0.00900
C543        C  0.03898076  0.15117954  0.64397877    -0.02000
C544        C  0.50969689  0.16245066  0.66040498     0.07600
C545        C  0.47844266  0.14767431  0.65289985    -0.02200
C546        C  0.47647090  0.12165707  0.62912172    -0.02200
C547        C  0.50542638  0.11130813  0.61158028     0.07800
C548        C  0.03690958  0.12547809  0.61971306    -0.02400
Br549      Br  0.07750124  0.10799437  0.59967728    -0.00900
Br550      Br  0.08181801  0.17080241  0.65521916    -0.01000
Br551      Br  0.43437502  0.09907111  0.62185924    -0.00900
Br552      Br  0.43825857  0.16340443  0.67514856    -0.00900
N553        N  0.00585362  0.75002381  0.19690304    -0.36800
N554        N  0.99388837  0.79969049  0.24974152    -0.57400
N555        N  0.00342774  0.74762704  0.30060477    -0.36800
N556        N  0.01111949  0.69744464  0.24778242    -0.57400
C557        C  0.99791286  0.77692098  0.17774808     0.26800
C558        C  0.00461809  0.72257853  0.17686434     0.26800
C559        C  0.99528873  0.77369618  0.32087053     0.26800
C560        C  0.00242278  0.71933870  0.31940306     0.26800
C561        C  0.99414242  0.82061013  0.22296815     0.35400
C562        C  0.99230656  0.81935018  0.27744761     0.35400
C563        C  0.01751957  0.67877125  0.22015206     0.35400
C564        C  0.01760511  0.67773251  0.27464524     0.35400
C565        C  0.99268285  0.76657981  0.14484459    -0.22100
C566        C  0.99659740  0.73231972  0.14435021    -0.22100
C567        C  0.99018896  0.76186989  0.35326275    -0.22100
C568        C  0.99375469  0.72764933  0.35213806    -0.22100
C569        C  0.99147915  0.85360064  0.23366360    -0.23100
C570        C  0.99009513  0.85280961  0.26804687    -0.23100
C571        C  0.02808428  0.64694411  0.22949489    -0.23100
C572        C  0.02848051  0.64639700  0.26398177    -0.23100
C573        C  0.99591513  0.81067323  0.18881490    -0.18500
C574        C  0.01152658  0.68905906  0.18664125    -0.18500
C575        C  0.01086799  0.68642222  0.30853570    -0.18500
C576        C  0.99325416  0.80795542  0.31126938    -0.18500
H577        H  0.98635724  0.78201885  0.12338138     0.14400
H578        H  0.99408155  0.71644460  0.12240023     0.14400
H579        H  0.98431556  0.77616909  0.37560772     0.14400
H580        H  0.99105866  0.71095395  0.37338386     0.14400
H581        H  0.99056973  0.87598226  0.21830624     0.12700
H582        H  0.98800806  0.87454397  0.28424275     0.12700
H583        H  0.03448154  0.62613511  0.21319136     0.12700
H584        H  0.03511366  0.62504161  0.27942887     0.12700
H585        H  0.01459743  0.75083748  0.22137612     0.26000
H586        H  0.01243216  0.74954155  0.27634276     0.26000
O587        O  0.50199622  0.59490206  0.05430208    -0.80300
O588        O  0.49666348  0.90337609  0.05547195    -0.81900
O589        O  0.44231823  0.50559883  0.09392817    -0.78900
O590        O  0.05149427  0.49518898  0.09705272    -0.77300
O591        O  0.09349915  0.99789770  0.05802398    -0.79100
O592        O  0.40178864  0.00303915  0.05315977    -0.80000
O593        O  0.49550090  0.94453839  0.09576497    -0.81300
O594        O  0.50119155  0.55448622  0.09528117    -0.81600
Eu595      Eu  0.49767385  0.99952344  0.06752707     2.39200
O596        O  0.03260218  0.96547643  0.03438781    -0.89100
O597        O  0.46448015  0.53329650  0.03229540    -0.92700
C598        C  0.50271998  0.58523111  0.08533558     1.02000
C599        C  0.49554683  0.91353475  0.08629428     1.01800
C600        C  0.41141989  0.50583349  0.08408917     1.01700
C601        C  0.08274893  0.49567479  0.08865045     0.99600
H602        H  0.44952811  0.95102603  0.04724012     0.29300
O603        O  0.46400300  0.96467467  0.03346963    -1.01500
H604        H  0.04674777  0.54743809  0.04810106     0.29400
O605        O  0.03263271  0.53360433  0.03406000    -1.04100
O606        O  0.49840336  0.90186517  0.44522043    -0.81300
O607        O  0.50250277  0.59394691  0.44245643    -0.80800
O608        O  0.40329072  0.94315618  0.49689569    -0.79300
O609        O  0.09505254  0.94459406  0.50573329    -0.82600
O610        O  0.09477526  0.55507350  0.50051321    -0.80500
O611        O  0.40332832  0.55363794  0.50171242    -0.79100
O612        O  0.44585779  0.00211933  0.40245526    -0.80600
O613        O  0.05638701  0.99665940  0.40476943    -0.82500
O614        O  0.40423277  0.00328667  0.44230195    -0.79300
O615        O  0.09647877  0.99710529  0.44625987    -0.82000
O616        O  0.44474760  0.90365021  0.49511893    -0.77700
O617        O  0.44316450  0.59448813  0.49853413    -0.77700
O618        O  0.05367371  0.59476546  0.49567882    -0.77400
O619        O  0.05554761  0.90354431  0.50265182    -0.80900
O620        O  0.49756185  0.94210563  0.40418253    -0.80300
O621        O  0.50570782  0.55232603  0.40295599    -0.78600
Eu622      Eu  0.49959806  0.93073516  0.49998623     2.39800
Eu623      Eu  0.49896749  0.56722727  0.49855696     2.39600
Eu624      Eu  0.43069478  0.99882492  0.49831318     2.38400
Eu625      Eu  0.06765668  0.99928826  0.50124793     2.39900
Eu626      Eu  0.50053129  0.99786436  0.43125459     2.39800
O627        O  0.03363767  0.53225946  0.46597033    -0.93000
O628        O  0.46576555  0.96451519  0.46516098    -0.91900
C629        C  0.49719257  0.91125709  0.41418882     1.02100
C630        C  0.50539947  0.58347895  0.41178705     1.00900
C631        C  0.41358475  0.91239072  0.49508208     1.00200
C632        C  0.08632862  0.91355226  0.50545476     1.02300
C633        C  0.08473427  0.58581749  0.49747767     1.01200
C634        C  0.41232895  0.58460536  0.50081839     1.00000
C635        C  0.41479167  0.00418800  0.41160364     1.00100
C636        C  0.08717674  0.99662184  0.41510298     1.02700
H637        H  0.45208359  0.54704324  0.45005014     0.30100
O638        O  0.46552504  0.53264747  0.46428457    -1.05200
H639        H  0.04881533  0.94999475  0.45284093     0.32100
O640        O  0.03459954  0.96431692  0.46632459    -1.07800
N641        N  0.25089411  0.50501817  0.30193139    -0.36800
N642        N  0.19824902  0.49669578  0.25175966    -0.57400
N643        N  0.24808346  0.50264531  0.19850767    -0.36800
N644        N  0.30023747  0.51495709  0.24864244    -0.57400
C645        C  0.22344934  0.50663145  0.32193647     0.26800
C646        C  0.27777026  0.51382243  0.32075524     0.26800
C647        C  0.21940649  0.50365494  0.18009349     0.26800
C648        C  0.27388929  0.51044602  0.17781856     0.26800
C649        C  0.18042341  0.48935970  0.27962133     0.35400
C650        C  0.17906735  0.48759305  0.22529238     0.35400
C651        C  0.32129158  0.51603462  0.27539878     0.35400
C652        C  0.31984298  0.51546263  0.22086702     0.35400
C653        C  0.23307780  0.51629207  0.35403080    -0.22100
C654        C  0.26739321  0.52032824  0.35341513    -0.22100
C655        C  0.22718445  0.51206556  0.14720484    -0.22100
C656        C  0.26149200  0.51515076  0.14552242    -0.22100
C657        C  0.14970850  0.47550539  0.27086923    -0.23100
C658        C  0.14895726  0.47412195  0.23641409    -0.23100
C659        C  0.35425692  0.51872567  0.26457422    -0.23100
C660        C  0.35334166  0.51867764  0.23016727    -0.23100
C661        C  0.19032652  0.49742301  0.31273188    -0.18500
C662        C  0.31155855  0.51477457  0.30964071    -0.18500
C663        C  0.30833584  0.51274296  0.18710798    -0.18500
C664        C  0.18676649  0.49464407  0.19135710    -0.18500
H665        H  0.21716660  0.51931699  0.37588488     0.14400
H666        H  0.28283642  0.52732478  0.37468887     0.14400
H667        H  0.21010737  0.51458127  0.12615983     0.14400
H668        H  0.27541186  0.52046773  0.12285102     0.14400
H669        H  0.12975376  0.46765221  0.28755236     0.12700
H670        H  0.12821111  0.46516998  0.22125489     0.12700
H671        H  0.37670566  0.52055750  0.27987065     0.12700
H672        H  0.37505780  0.52047072  0.21392783     0.12700
H673        H  0.25189828  0.49479021  0.27804437     0.26000
H674        H  0.25045243  0.49359243  0.22275064     0.26000
N675        N  0.24991914  0.79960205  0.49845627    -0.36800
N676        N  0.19822638  0.74919376  0.49819204    -0.57400
N677        N  0.24880907  0.69829841  0.49879217    -0.36800
N678        N  0.30052365  0.74871800  0.49779364    -0.57400
C679        C  0.22302538  0.81656689  0.51038977     0.26800
C680        C  0.27774160  0.81677602  0.50749009     0.26800
C681        C  0.22112988  0.68098059  0.50788052     0.26800
C682        C  0.27590877  0.68096987  0.50971015     0.26800
C683        C  0.18031162  0.77686196  0.49037110     0.35400
C684        C  0.17989801  0.72250546  0.48833986     0.35400
C685        C  0.31873698  0.77533097  0.48764327     0.35400
C686        C  0.31848421  0.72106891  0.49005923     0.35400
C687        C  0.23395657  0.84458677  0.52805056    -0.22100
C688        C  0.26862767  0.84489882  0.52587749    -0.22100
C689        C  0.23062243  0.65236167  0.52529632    -0.22100
C690        C  0.26534699  0.65238823  0.52653427    -0.22100
C691        C  0.15046830  0.76784882  0.47476954    -0.23100
C692        C  0.15024056  0.73323762  0.47339129    -0.23100
C693        C  0.34835558  0.76455599  0.47271961    -0.23100
C694        C  0.34828058  0.73000529  0.47444801    -0.23100
C695        C  0.18932320  0.80933114  0.50141030    -0.18500
C696        C  0.31051494  0.80870449  0.49643002    -0.18500
C697        C  0.30944451  0.68854890  0.50064556    -0.18500
C698        C  0.18814349  0.68917102  0.49735258    -0.18500
H699        H  0.21851706  0.86361049  0.53988518     0.14400
H700        H  0.28515175  0.86398568  0.53591233     0.14400
H701        H  0.21430445  0.63300771  0.53506322     0.14400
H702        H  0.28103164  0.63295365  0.53733514     0.14400
H703        H  0.13049746  0.78437828  0.46647369     0.12700
H704        H  0.13000254  0.71777629  0.46390445     0.12700
H705        H  0.36848257  0.77996949  0.46301924     0.12700
H706        H  0.36822770  0.71345394  0.46615224     0.12700
H707        H  0.24918042  0.78009403  0.48098460     0.26000
H708        H  0.24927544  0.71817670  0.48180341     0.26000
C709        C  0.36670955  0.83150491  0.01453797    -0.02000
C710        C  0.33701399  0.83527596  0.49554159     0.07600
C711        C  0.33334446  0.86365649  0.47460873    -0.02200
C712        C  0.35782663  0.88922554  0.47487252    -0.02200
C713        C  0.38798085  0.88504068  0.49347769     0.07800
C714        C  0.39330105  0.85427747  0.01068693    -0.02400
Br715      Br  0.43717825  0.84030151  0.02654662    -0.00900
Br716      Br  0.37059742  0.79628782  0.04768280    -0.01000
Br717      Br  0.35090878  0.92823158  0.44683918    -0.00900
Br718      Br  0.29563507  0.86684806  0.44416775    -0.00900
C719        C  0.35415717  0.60554927  0.48559680    -0.02000
C720        C  0.38528854  0.61054521  0.50236793     0.07600
C721        C  0.39003400  0.64062068  0.02088883    -0.02200
C722        C  0.36412307  0.66473538  0.02249237    -0.02200
C723        C  0.33551729  0.66157434  0.50173229     0.07800
C724        C  0.33147339  0.63234966  0.48224565    -0.02400
Br725      Br  0.29635760  0.62970306  0.44879061    -0.00900
Br726      Br  0.33991214  0.56215332  0.46901945    -0.01000
Br727      Br  0.36719012  0.70120441  0.05437874    -0.00900
Br728      Br  0.43079190  0.64868425  0.04610353    -0.00900
C729        C  0.10807484  0.85610744  0.02292691    -0.02000
C730        C  0.11369451  0.88776494  0.50762860     0.07600
C731        C  0.14600074  0.89416965  0.49388545    -0.02200
C732        C  0.16815506  0.86743329  0.48783664    -0.02200
C733        C  0.16315022  0.83631396  0.50382208     0.07800
C734        C  0.13392997  0.83181066  0.02344818    -0.02400
Br735      Br  0.13017055  0.79369961  0.05308171    -0.00900
Br736      Br  0.06643780  0.84603075  0.04576899    -0.01000
Br737      Br  0.20404372  0.87358137  0.45579145    -0.00900
Br738      Br  0.16360440  0.93899929  0.48754832    -0.00900
C739        C  0.13219020  0.66659187  0.01648644    -0.02000
C740        C  0.16154463  0.66264963  0.49702494     0.07600
C741        C  0.16505766  0.63380032  0.47664107    -0.02200
C742        C  0.14055436  0.60830213  0.47746008    -0.02200
C743        C  0.11059713  0.61283539  0.49617659     0.07800
C744        C  0.10563793  0.64359160  0.01350188    -0.02400
Br745      Br  0.06234834  0.65667649  0.03146071    -0.00900
Br746      Br  0.12895976  0.70210476  0.04939698    -0.01000
Br747      Br  0.14732601  0.56860631  0.45029572    -0.00900
Br748      Br  0.20279031  0.62954665  0.44642534    -0.00900
C749        C  0.38059672  0.97944940  0.36539183    -0.02000
C750        C  0.38935446  0.00762008  0.38481715     0.07600
C751        C  0.37402258  0.53893134  0.37828299    -0.02200
C752        C  0.34878699  0.54153960  0.35352629    -0.02200
C753        C  0.33863343  0.51280558  0.33551274     0.07800
C754        C  0.35490502  0.98184235  0.34124486    -0.02400
Br755      Br  0.34201365  0.94257735  0.31588280    -0.00900
Br756      Br  0.40447099  0.93773720  0.37126043    -0.01000
Br757      Br  0.32833066  0.58441291  0.34393090    -0.00900
Br758      Br  0.38907848  0.57868955  0.40151089    -0.00900
C759        C  0.11773386  0.52490113  0.36821209    -0.02000
C760        C  0.11372613  0.99664340  0.38911362     0.07600
C761        C  0.13477626  0.96845092  0.38462403    -0.02200
C762        C  0.15978211  0.96864757  0.35964036    -0.02200
C763        C  0.16404777  0.49713040  0.33925629     0.07800
C764        C  0.14298014  0.52525199  0.34351726    -0.02400
Br765      Br  0.14889295  0.56428171  0.31545087    -0.00900
Br766      Br  0.08902215  0.56345633  0.37365417    -0.01000
Br767      Br  0.18774008  0.92965386  0.35250374    -0.00900
Br768      Br  0.12836503  0.92878633  0.41123742    -0.00900
C769        C  0.10531209  0.51476437  0.14483121    -0.02000
C770        C  0.10802148  0.49371439  0.11622985     0.07600
C771        C  0.13502256  0.97060119  0.11441955    -0.02200
C772        C  0.15926566  0.96932853  0.14020121    -0.02200
C773        C  0.15881685  0.49336718  0.16620784     0.07800
C774        C  0.13175272  0.51626147  0.16830943    -0.02400
Br775      Br  0.13126109  0.55071423  0.20262599    -0.00900
Br776      Br  0.06527791  0.54088523  0.15342992    -0.01000
Br777      Br  0.19284404  0.93417793  0.14032866    -0.00900
Br778      Br  0.13823165  0.93898424  0.07792392    -0.00900
C779        C  0.38387963  0.98444861  0.13629130    -0.02000
C780        C  0.38526170  0.50859786  0.11048690     0.07600
C781        C  0.36195741  0.53542117  0.11078677    -0.02200
C782        C  0.33866647  0.53836345  0.13734011    -0.02200
C783        C  0.33431467  0.51146508  0.15997627     0.07800
C784        C  0.35635376  0.98373565  0.15824562    -0.02400
Br785      Br  0.34908415  0.94454892  0.18581913    -0.00900
Br786      Br  0.42093013  0.95442938  0.14438405    -0.01000
Br787      Br  0.31414664  0.57977166  0.14369213    -0.00900
Br788      Br  0.36269043  0.56909806  0.07619847    -0.00900
C789        C  0.48582597  0.63406564  0.33314645    -0.00700
C790        C  0.51087391  0.65898933  0.33415247     0.07600
C791        C  0.03528752  0.65819337  0.35988033    -0.02200
C792        C  0.03268617  0.63460373  0.38613425    -0.02200
C793        C  0.50816369  0.60894921  0.38458560     0.07800
C794        C  0.48629742  0.60767458  0.35653710    -0.02400
Br795      Br  0.45743410  0.56966851  0.34879444    -0.00900
Br796      Br  0.44952674  0.63703286  0.30091814    -0.01000
Br797      Br  0.06397271  0.63694150  0.42310157    -0.00900
Br798      Br  0.07249620  0.68923186  0.35875891    -0.00900
C799        C  0.46784431  0.86291590  0.38579663    -0.02000
C800        C  0.49576424  0.88465895  0.38810158     0.07600
C801        C  0.02256028  0.88076475  0.36527428    -0.02200
C802        C  0.02274080  0.85394280  0.34234536    -0.02200
C803        C  0.49385021  0.83393665  0.33835328     0.07800
C804        C  0.46581396  0.83942434  0.35935212    -0.02400
Br805      Br  0.42442939  0.81548911  0.35129540    -0.00900
Br806      Br  0.43231199  0.86497218  0.41854371    -0.01000
Br807      Br  0.06279428  0.84428320  0.31654497    -0.00900
Br808      Br  0.05885553  0.91234696  0.36463049    -0.00900
C809        C  0.46506504  0.84665291  0.14688908    -0.02000
C810        C  0.49541501  0.83749024  0.16274900     0.07600
C811        C  0.02548766  0.85398031  0.15416542    -0.02200
C812        C  0.02523919  0.87933178  0.12961285    -0.02200
C813        C  0.49515415  0.88768385  0.11283792     0.07800
C814        C  0.46501594  0.87129688  0.12155525    -0.02400
Br815      Br  0.42352678  0.88280707  0.09931459    -0.00900
Br816      Br  0.42361436  0.82555426  0.16029432    -0.01000
Br817      Br  0.06617488  0.90264301  0.11889389    -0.00900
Br818      Br  0.06699300  0.84182448  0.17626622    -0.00900
C819        C  0.03898081  0.65117956  0.14397873    -0.02000
C820        C  0.50969695  0.66245063  0.16040495     0.07600
C821        C  0.47844272  0.64767428  0.15289982    -0.02200
C822        C  0.47647094  0.62165703  0.12912170    -0.02200
C823        C  0.50542639  0.61130813  0.11158023     0.07800
C824        C  0.03690965  0.62547812  0.11971299    -0.02400
Br825      Br  0.07750133  0.60799437  0.09967720    -0.00900
Br826      Br  0.08181808  0.67080236  0.15521926    -0.01000
Br827      Br  0.43437510  0.59907110  0.12185915    -0.00900
Br828      Br  0.43825865  0.66340444  0.17514847    -0.00900
N829        N  0.00585361  0.75002376  0.69690313    -0.36800
N830        N  0.99388836  0.79969049  0.74974157    -0.57400
N831        N  0.00342777  0.74762706  0.80060471    -0.36800
N832        N  0.01111952  0.69744462  0.74778247    -0.57400
C833        C  0.99791285  0.77692093  0.67774815     0.26800
C834        C  0.00461808  0.72257848  0.67686442     0.26800
C835        C  0.99528873  0.77369618  0.82087055     0.26800
C836        C  0.00242271  0.71933868  0.81940306     0.26800
C837        C  0.99414242  0.82061015  0.72296818     0.35400
C838        C  0.99230656  0.81935021  0.77744765     0.35400
C839        C  0.01751957  0.67877121  0.72015212     0.35400
C840        C  0.01760512  0.67773252  0.77464528     0.35400
C841        C  0.99268283  0.76657978  0.64484464    -0.22100
C842        C  0.99659739  0.73231967  0.64435029    -0.22100
C843        C  0.99018892  0.76186979  0.85326273    -0.22100
C844        C  0.99375454  0.72764922  0.85213804    -0.22100
C845        C  0.99147914  0.85360075  0.73366356    -0.23100
C846        C  0.99009512  0.85280968  0.76804691    -0.23100
C847        C  0.02808424  0.64694404  0.72949494    -0.23100
C848        C  0.02848048  0.64639701  0.76398182    -0.23100
C849        C  0.99591513  0.81067317  0.68881497    -0.18500
C850        C  0.01152658  0.68905901  0.68664131    -0.18500
C851        C  0.01086798  0.68642223  0.80853570    -0.18500
C852        C  0.99325415  0.80795543  0.81126943    -0.18500
H853        H  0.98635725  0.78201884  0.62338145     0.14400
H854        H  0.99408158  0.71644451  0.62240034     0.14400
H855        H  0.98431556  0.77616895  0.87560775     0.14400
H856        H  0.99105843  0.71095379  0.87338378     0.14400
H857        H  0.99056972  0.87598232  0.71830618     0.12700
H858        H  0.98800805  0.87454399  0.78424285     0.12700
H859        H  0.03448144  0.62613500  0.71319145     0.12700
H860        H  0.03511358  0.62504162  0.77942896     0.12700
H861        H  0.01459744  0.75083743  0.72137618     0.26000
H862        H  0.01243221  0.74954154  0.77634281     0.26000
O863        O  0.50199622  0.59490200  0.55430212    -0.80300
O864        O  0.49666348  0.90337606  0.55547198    -0.81900
O865        O  0.44231819  0.50559879  0.59392807    -0.78900
O866        O  0.05149426  0.49518892  0.59705281    -0.77300
O867        O  0.09349910  0.99789764  0.55802404    -0.79100
O868        O  0.40178860  0.00303909  0.55315970    -0.80000
O869        O  0.49550089  0.94453837  0.59576498    -0.81300
O870        O  0.50119155  0.55448622  0.59528128    -0.81600
Eu871      Eu  0.49767384  0.99952343  0.56752711     2.39200
O872        O  0.03260216  0.96547647  0.53438779    -0.89100
O873        O  0.46448008  0.53329658  0.53229547    -0.92700
C874        C  0.50271996  0.58523108  0.58533565     1.02000
C875        C  0.49554682  0.91353471  0.58629432     1.01800
C876        C  0.41141985  0.50583343  0.58408906     1.01700
C877        C  0.08274892  0.49567483  0.58865053     0.99600
H878        H  0.44952812  0.95102595  0.54724001     0.29300
O879        O  0.46400303  0.96467464  0.53346960    -1.01500
H880        H  0.04674779  0.54743806  0.54810107     0.29400
O881        O  0.03263275  0.53360428  0.53406000    -1.04100
O882        O  0.49840335  0.90186517  0.94522049    -0.81300
O883        O  0.50250276  0.59394694  0.94245639    -0.80800
O884        O  0.40329072  0.94315620  0.99689572    -0.79300
O885        O  0.09505248  0.94459403  0.00573338    -0.82600
O886        O  0.09477525  0.55507357  0.00051327    -0.80500
O887        O  0.40332832  0.55363790  0.00171254    -0.79100
O888        O  0.44585775  0.00211948  0.90245524    -0.80600
O889        O  0.05638701  0.99665935  0.90476943    -0.82500
O890        O  0.40423273  0.00328660  0.94230194    -0.79300
O891        O  0.09647873  0.99710525  0.94625991    -0.82000
O892        O  0.44474758  0.90365022  0.99511899    -0.77700
O893        O  0.44316449  0.59448811  0.99853423    -0.77700
O894        O  0.05367369  0.59476553  0.99567886    -0.77400
O895        O  0.05554755  0.90354428  0.00265170    -0.80900
O896        O  0.49756184  0.94210563  0.90418259    -0.80300
O897        O  0.50570781  0.55232601  0.90295599    -0.78600
Eu898      Eu  0.49959802  0.93073519  0.99998624     2.39800
Eu899      Eu  0.49896749  0.56722735  0.99855696     2.39600
Eu900      Eu  0.43069476  0.99882492  0.99831317     2.38400
Eu901      Eu  0.06765667  0.99928825  0.00124795     2.39900
Eu902      Eu  0.50053128  0.99786438  0.93125460     2.39800
O903        O  0.03363760  0.53225955  0.96597033    -0.93000
O904        O  0.46576555  0.96451521  0.96516095    -0.91900
C905        C  0.49719256  0.91125709  0.91418887     1.02100
C906        C  0.50539948  0.58347894  0.91178701     1.00900
C907        C  0.41358474  0.91239073  0.99508213     1.00200
C908        C  0.08632856  0.91355224  0.00545472     1.02300
C909        C  0.08473425  0.58581756  0.99747768     1.01200
C910        C  0.41232894  0.58460531  0.00081848     1.00000
C911        C  0.41479163  0.00418806  0.91160363     1.00100
C912        C  0.08717673  0.99662183  0.91510301     1.02700
H913        H  0.45208363  0.54704308  0.95005028     0.30100
O914        O  0.46552506  0.53264743  0.96428468    -1.05200
H915        H  0.04881533  0.94999471  0.95284104     0.32100
O916        O  0.03459953  0.96431692  0.96632466    -1.07800
N917        N  0.25089411  0.50501818  0.80193139    -0.36800
N918        N  0.19824900  0.49669595  0.75175971    -0.57400
N919        N  0.24808347  0.50264522  0.69850766    -0.36800
N920        N  0.30023746  0.51495713  0.74864235    -0.57400
C921        C  0.22344934  0.50663155  0.82193646     0.26800
C922        C  0.27777026  0.51382246  0.82075518     0.26800
C923        C  0.21940647  0.50365492  0.68009339     0.26800
C924        C  0.27388927  0.51044600  0.67781850     0.26800
C925        C  0.18042345  0.48935970  0.77962139     0.35400
C926        C  0.17906734  0.48759318  0.72529242     0.35400
C927        C  0.32129158  0.51603469  0.77539870     0.35400
C928        C  0.31984302  0.51546266  0.72086692     0.35400
C929        C  0.23307778  0.51629224  0.85403076    -0.22100
C930        C  0.26739317  0.52032834  0.85341499    -0.22100
C931        C  0.22718438  0.51206556  0.64720473    -0.22100
C932        C  0.26149193  0.51515079  0.64552244    -0.22100
C933        C  0.14970854  0.47550526  0.77086934    -0.23100
C934        C  0.14895728  0.47412190  0.73641416    -0.23100
C935        C  0.35425698  0.51872567  0.76457415    -0.23100
C936        C  0.35334178  0.51867763  0.73016714    -0.23100
C937        C  0.19032655  0.49742305  0.81273191    -0.18500
C938        C  0.31155855  0.51477462  0.80964063    -0.18500
C939        C  0.30833584  0.51274296  0.68710790    -0.18500
C940        C  0.18676649  0.49464417  0.69135712    -0.18500
H941        H  0.21716664  0.51931721  0.87588488     0.14400
H942        H  0.28283639  0.52732493  0.87468871     0.14400
H943        H  0.21010737  0.51458132  0.62615968     0.14400
H944        H  0.27541182  0.52046787  0.62285106     0.14400
H945        H  0.12975387  0.46765200  0.78755251     0.12700
H946        H  0.12821118  0.46516985  0.72125496     0.12700
H947        H  0.37670568  0.52055741  0.77987065     0.12700
H948        H  0.37505792  0.52047060  0.71392770     0.12700
H949        H  0.25189826  0.49479015  0.77804441     0.26000
H950        H  0.25045240  0.49359238  0.72275055     0.26000
N951        N  0.24991910  0.79960208  0.99845629    -0.36800
N952        N  0.19822634  0.74919376  0.99819214    -0.57400
N953        N  0.24880909  0.69829846  0.99879224    -0.36800
N954        N  0.30052366  0.74871803  0.99779376    -0.57400
C955        C  0.22302531  0.81656686  0.01038980     0.26800
C956        C  0.27774156  0.81677607  0.00749012     0.26800
C957        C  0.22112990  0.68098062  0.00788049     0.26800
C958        C  0.27590877  0.68096993  0.00971022     0.26800
C959        C  0.18031156  0.77686194  0.99037116     0.35400
C960        C  0.17989800  0.72250545  0.98833988     0.35400
C961        C  0.31873693  0.77533097  0.98764331     0.35400
C962        C  0.31848418  0.72106891  0.99005927     0.35400
C963        C  0.23395646  0.84458675  0.02805055    -0.22100
C964        C  0.26862758  0.84489888  0.02587756    -0.22100
C965        C  0.23062242  0.65236170  0.02529628    -0.22100
C966        C  0.26534695  0.65238828  0.02653433    -0.22100
C967        C  0.15046830  0.76784882  0.97476949    -0.23100
C968        C  0.15024061  0.73323763  0.97339125    -0.23100
C969        C  0.34835542  0.76455593  0.97271957    -0.23100
C970        C  0.34828045  0.73000525  0.97444794    -0.23100
C971        C  0.18932313  0.80933112  0.00141037    -0.18500
C972        C  0.31051490  0.80870454  0.99643000    -0.18500
C973        C  0.30944450  0.68854888  0.00064560    -0.18500
C974        C  0.18814350  0.68917102  0.99735254    -0.18500
H975        H  0.21851685  0.86361044  0.03988509     0.14400
H976        H  0.28515159  0.86398577  0.03591246     0.14400
H977        H  0.21430444  0.63300771  0.03506307     0.14400
H978        H  0.28103156  0.63295367  0.03733521     0.14400
H979        H  0.13049745  0.78437823  0.96647360     0.12700
H980        H  0.13000261  0.71777631  0.96390436     0.12700
H981        H  0.36848244  0.77996941  0.96301916     0.12700
H982        H  0.36822754  0.71345391  0.96615209     0.12700
H983        H  0.24918040  0.78009410  0.98098456     0.26000
H984        H  0.24927548  0.71817677  0.98180350     0.26000
C985        C  0.36670957  0.83150492  0.51453798    -0.02000
C986        C  0.33701399  0.83527597  0.99554155     0.07600
C987        C  0.33334449  0.86365649  0.97460870    -0.02200
C988        C  0.35782661  0.88922556  0.97487256    -0.02200
C989        C  0.38798083  0.88504072  0.99347777     0.07800
C990        C  0.39330108  0.85427744  0.51068686    -0.02400
Br991      Br  0.43717825  0.84030165  0.52654673    -0.00900
Br992      Br  0.37059742  0.79628796  0.54768293    -0.01000
Br993      Br  0.35090858  0.92823158  0.94683929    -0.00900
Br994      Br  0.29563502  0.86684821  0.94416783    -0.00900
C995        C  0.35415718  0.60554921  0.98559683    -0.02000
C996        C  0.38528855  0.61054517  0.00236796     0.07600
C997        C  0.39003402  0.64062074  0.52088881    -0.02200
C998        C  0.36412312  0.66473549  0.52249232    -0.02200
C999        C  0.33551727  0.66157428  0.00173232     0.07800
C1000       C  0.33147340  0.63234962  0.98224567    -0.02400
Br1001     Br  0.29635758  0.62970299  0.94879069    -0.00900
Br1002     Br  0.33991213  0.56215325  0.96901956    -0.01000
Br1003     Br  0.36719013  0.70120452  0.55437879    -0.00900
Br1004     Br  0.43079187  0.64868418  0.54610362    -0.00900
C1005       C  0.10807488  0.85610738  0.52292692    -0.02000
C1006       C  0.11369446  0.88776494  0.00762856     0.07600
C1007       C  0.14600072  0.89416965  0.99388545    -0.02200
C1008       C  0.16815503  0.86743328  0.98783662    -0.02200
C1009       C  0.16315016  0.83631397  0.00382207     0.07800
C1010       C  0.13393007  0.83181064  0.52344822    -0.02400
Br1011     Br  0.13017078  0.79369958  0.55308181    -0.00900
Br1012     Br  0.06643786  0.84603069  0.54576906    -0.01000
Br1013     Br  0.20404367  0.87358130  0.95579136    -0.00900
Br1014     Br  0.16360440  0.93899926  0.98754841    -0.00900
C1015       C  0.13219026  0.66659184  0.51648649    -0.02000
C1016       C  0.16154462  0.66264961  0.99702495     0.07600
C1017       C  0.16505769  0.63380025  0.97664115    -0.02200
C1018       C  0.14055437  0.60830209  0.97746011    -0.02200
C1019       C  0.11059707  0.61283544  0.99617653     0.07800
C1020       C  0.10563803  0.64359152  0.51350197    -0.02400
Br1021     Br  0.06234847  0.65667644  0.53146063    -0.00900
Br1022     Br  0.12895974  0.70210491  0.54939685    -0.01000
Br1023     Br  0.14732598  0.56860628  0.95029563    -0.00900
Br1024     Br  0.20279033  0.62954658  0.94642544    -0.00900
C1025       C  0.38059666  0.97944950  0.86539187    -0.02000
C1026       C  0.38935440  0.00762015  0.88481718     0.07600
C1027       C  0.37402255  0.53893141  0.87828301    -0.02200
C1028       C  0.34878700  0.54153968  0.85352623    -0.02200
C1029       C  0.33863345  0.51280563  0.83551266     0.07800
C1030       C  0.35490505  0.98184248  0.84124482    -0.02400
Br1031     Br  0.34201364  0.94257749  0.81588288    -0.00900
Br1032     Br  0.40447097  0.93773735  0.87126053    -0.01000
Br1033     Br  0.32833069  0.58441301  0.84393078    -0.00900
Br1034     Br  0.38907845  0.57868965  0.90151096    -0.00900
C1035       C  0.11773386  0.52490116  0.86821208    -0.02000
C1036       C  0.11372616  0.99664349  0.88911367     0.07600
C1037       C  0.13477634  0.96845106  0.88462408    -0.02200
C1038       C  0.15978219  0.96864772  0.85964040    -0.02200
C1039       C  0.16404779  0.49713042  0.83925631     0.07800
C1040       C  0.14298015  0.52525200  0.84351724    -0.02400
Br1041     Br  0.14889293  0.56428165  0.81545075    -0.00900
Br1042     Br  0.08902212  0.56345631  0.87365404    -0.01000
Br1043     Br  0.18774029  0.92965407  0.85250387    -0.00900
Br1044     Br  0.12836503  0.92878646  0.91123734    -0.00900
C1045       C  0.10531206  0.51476437  0.64483132    -0.02000
C1046       C  0.10802148  0.49371445  0.61622992     0.07600
C1047       C  0.13502254  0.97060114  0.61441966    -0.02200
C1048       C  0.15926567  0.96932845  0.64020128    -0.02200
C1049       C  0.15881684  0.49336723  0.66620790     0.07800
C1050       C  0.13175268  0.51626147  0.66830955    -0.02400
Br1051     Br  0.13126107  0.55071420  0.70262611    -0.00900
Br1052     Br  0.06527788  0.54088518  0.65343004    -0.01000
Br1053     Br  0.19284423  0.93417792  0.64032854    -0.00900
Br1054     Br  0.13823166  0.93898435  0.57792397    -0.00900
C1055       C  0.38387963  0.98444858  0.63629126    -0.02000
C1056       C  0.38526167  0.50859779  0.61048681     0.07600
C1057       C  0.36195744  0.53542114  0.61078673    -0.02200
C1058       C  0.33866653  0.53836344  0.63734007    -0.02200
C1059       C  0.33431469  0.51146504  0.65997621     0.07800
C1060       C  0.35635372  0.98373561  0.65824552    -0.02400
Br1061     Br  0.34908393  0.94454885  0.68581896    -0.00900
Br1062     Br  0.42093012  0.95442934  0.64438413    -0.01000
Br1063     Br  0.31414663  0.57977162  0.64369200    -0.00900
Br1064     Br  0.36269042  0.56909799  0.57619835    -0.00900
C1065       C  0.48582586  0.63406569  0.83314653    -0.00700
C1066       C  0.51087386  0.65898932  0.83415245     0.07600
C1067       C  0.03528753  0.65819336  0.85988034    -0.02200
C1068       C  0.03268621  0.63460369  0.88613422    -0.02200
C1069       C  0.50816368  0.60894917  0.88458556     0.07800
C1070       C  0.48629732  0.60767460  0.85653714    -0.02400
Br1071     Br  0.45743411  0.56966845  0.84879434    -0.00900
Br1072     Br  0.44952669  0.63703282  0.80091821    -0.01000
Br1073     Br  0.06397276  0.63694143  0.92310149    -0.00900
Br1074     Br  0.07249621  0.68923183  0.85875900    -0.00900
C1075       C  0.46784431  0.86291587  0.88579671    -0.02000
C1076       C  0.49576423  0.88465893  0.88810165     0.07600
C1077       C  0.02256028  0.88076467  0.86527440    -0.02200
C1078       C  0.02274080  0.85394274  0.84234546    -0.02200
C1079       C  0.49385022  0.83393666  0.83835333     0.07800
C1080       C  0.46581396  0.83942437  0.85935215    -0.02400
Br1081     Br  0.42442937  0.81548928  0.85129527    -0.00900
Br1082     Br  0.43231199  0.86497212  0.91854382    -0.01000
Br1083     Br  0.06279428  0.84428314  0.81654508    -0.00900
Br1084     Br  0.05885553  0.91234689  0.86463060    -0.00900
C1085       C  0.46506510  0.84665287  0.64688917    -0.02000
C1086       C  0.49541507  0.83749018  0.66274908     0.07600
C1087       C  0.02548764  0.85398026  0.65416548    -0.02200
C1088       C  0.02523917  0.87933174  0.62961293    -0.02200
C1089       C  0.49515415  0.88768384  0.61283801     0.07800
C1090       C  0.46501595  0.87129685  0.62155535    -0.02400
Br1091     Br  0.42352678  0.88280701  0.59931471    -0.00900
Br1092     Br  0.42361451  0.82555417  0.66029444    -0.01000
Br1093     Br  0.06617487  0.90264296  0.61889399    -0.00900
Br1094     Br  0.06699302  0.84182438  0.67626612    -0.00900
C1095       C  0.03898081  0.65117947  0.64397877    -0.02000
C1096       C  0.50969689  0.66245059  0.66040499     0.07600
C1097       C  0.47844262  0.64767427  0.65289987    -0.02200
C1098       C  0.47647084  0.62165702  0.62912175    -0.02200
C1099       C  0.50542633  0.61130811  0.61158029     0.07800
C1100       C  0.03690964  0.62547802  0.61971307    -0.02400
Br1101     Br  0.07750133  0.60799430  0.59967730    -0.00900
Br1102     Br  0.08181808  0.67080232  0.65521916    -0.01000
Br1103     Br  0.43437494  0.59907106  0.62185926    -0.00900
Br1104     Br  0.43825851  0.66340456  0.67514851    -0.00900
N1105       N  0.50585368  0.25002384  0.19690303    -0.36800
N1106       N  0.49388829  0.29969048  0.24974147    -0.57400
N1107       N  0.50342777  0.24762709  0.30060474    -0.36800
N1108       N  0.51111959  0.19744464  0.24778239    -0.57400
C1109       C  0.49791290  0.27692100  0.17774806     0.26800
C1110       C  0.50461815  0.22257854  0.17686437     0.26800
C1111       C  0.49528871  0.27369620  0.32087048     0.26800
C1112       C  0.50242281  0.21933875  0.31940302     0.26800
C1113       C  0.49414236  0.32061015  0.22296811     0.35400
C1114       C  0.49230651  0.31935015  0.27744756     0.35400
C1115       C  0.51751963  0.17877123  0.22015206     0.35400
C1116       C  0.51760521  0.17773253  0.27464524     0.35400
C1117       C  0.49268292  0.26657982  0.14484457    -0.22100
C1118       C  0.49659742  0.23231974  0.14435028    -0.22100
C1119       C  0.49018892  0.26186991  0.35326268    -0.22100
C1120       C  0.49375467  0.22764937  0.35213798    -0.22100
C1121       C  0.49147913  0.35360064  0.23366357    -0.23100
C1122       C  0.49009511  0.35280953  0.26804682    -0.23100
C1123       C  0.52808429  0.14694406  0.22949494    -0.23100
C1124       C  0.52848060  0.14639697  0.26398185    -0.23100
C1125       C  0.49591511  0.31067324  0.18881487    -0.18500
C1126       C  0.51152665  0.18905903  0.18664125    -0.18500
C1127       C  0.51086803  0.18642226  0.30853568    -0.18500
C1128       C  0.49325412  0.30795542  0.31126934    -0.18500
H1129       H  0.48635735  0.28201881  0.12338131     0.14400
H1130       H  0.49408148  0.21644459  0.12240033     0.14400
H1131       H  0.48431550  0.27616908  0.37560767     0.14400
H1132       H  0.49105862  0.21095398  0.37338377     0.14400
H1133       H  0.49056979  0.37598229  0.21830628     0.12700
H1134       H  0.48800814  0.37454390  0.28424272     0.12700
H1135       H  0.53448147  0.12613502  0.21319142     0.12700
H1136       H  0.53511371  0.12504161  0.27942897     0.12700
H1137       H  0.51459753  0.25083752  0.22137610     0.26000
H1138       H  0.51243220  0.24954161  0.27634271     0.26000
O1139       O  0.00199615  0.09490201  0.05430211    -0.80300
O1140       O  0.99666356  0.40337606  0.05547199    -0.81900
O1141       O  0.94231822  0.00559873  0.09392815    -0.78900
O1142       O  0.55149426  0.99518891  0.09705272    -0.77300
O1143       O  0.59349918  0.49789761  0.05802394    -0.79100
O1144       O  0.90178867  0.50303906  0.05315980    -0.80000
O1145       O  0.99550077  0.44453837  0.09576500    -0.81300
O1146       O  0.00119149  0.05448624  0.09528126    -0.81600
Eu1147     Eu  0.99767387  0.49952342  0.06752708     2.39200
O1148       O  0.53260213  0.46547646  0.03438776    -0.89100
O1149       O  0.96448008  0.03329651  0.03229542    -0.92700
C1150       C  0.00271991  0.08523110  0.08533564     1.02000
C1151       C  0.99554680  0.41353472  0.08629432     1.01800
C1152       C  0.91141988  0.00583349  0.08408917     1.01700
C1153       C  0.58274894  0.99567481  0.08865045     0.99600
H1154       H  0.94952806  0.45102586  0.04724018     0.29300
O1155       O  0.96400295  0.46467464  0.03346965    -1.01500
H1156       H  0.54674759  0.04743810  0.04810098     0.29400
O1157       O  0.53263266  0.03360432  0.03405998    -1.04100
O1158       O  0.99840345  0.40186508  0.44522046    -0.81300
O1159       O  0.00250272  0.09394693  0.44245642    -0.80800
O1160       O  0.90329063  0.44315618  0.49689570    -0.79300
O1161       O  0.59505253  0.44459406  0.50573328    -0.82600
O1162       O  0.59477531  0.05507356  0.50051336    -0.80500
O1163       O  0.90332825  0.05363788  0.50171244    -0.79100
O1164       O  0.94585779  0.50211946  0.40245527    -0.80600
O1165       O  0.55638699  0.49665941  0.40476943    -0.82500
O1166       O  0.90423274  0.50328660  0.44230194    -0.79300
O1167       O  0.59647874  0.49710531  0.44625989    -0.82000
O1168       O  0.94474753  0.40365020  0.49511894    -0.77700
O1169       O  0.94316442  0.09448810  0.49853414    -0.77700
O1170       O  0.55367371  0.09476547  0.49567898    -0.77400
O1171       O  0.55554760  0.40354430  0.50265181    -0.80900
O1172       O  0.99756172  0.44210562  0.40418263    -0.80300
O1173       O  0.00570779  0.05232604  0.40295600    -0.78600
Eu1174     Eu  0.99959805  0.43073515  0.49998622     2.39800
Eu1175     Eu  0.99896741  0.06722730  0.49855697     2.39600
Eu1176     Eu  0.93069473  0.49882496  0.49831320     2.38400
Eu1177     Eu  0.56765665  0.49928822  0.50124793     2.39900
Eu1178     Eu  0.00053129  0.49786437  0.43125460     2.39800
O1179       O  0.53363762  0.03225951  0.46597036    -0.93000
O1180       O  0.96576555  0.46451525  0.46516103    -0.91900
C1181       C  0.99719254  0.41125706  0.41418887     1.02100
C1182       C  0.00539945  0.08347895  0.41178704     1.00900
C1183       C  0.91358468  0.41239071  0.49508209     1.00200
C1184       C  0.58632862  0.41355227  0.50545475     1.02300
C1185       C  0.58473428  0.08581753  0.49747779     1.01200
C1186       C  0.91232888  0.08460530  0.50081841     1.00000
C1187       C  0.91479167  0.50418803  0.41160364     1.00100
C1188       C  0.58717674  0.49662186  0.41510300     1.02700
H1189       H  0.95208345  0.04704311  0.45005018     0.30100
O1190       O  0.96552497  0.03264742  0.46428461    -1.05200
H1191       H  0.54881538  0.44999478  0.45284094     0.32100
O1192       O  0.53459953  0.46431692  0.46632457    -1.07800
N1193       N  0.75089409  0.00501807  0.30193140    -0.36800
N1194       N  0.69824895  0.99669589  0.25175966    -0.57400
N1195       N  0.74808345  0.00264540  0.19850766    -0.36800
N1196       N  0.80023741  0.01495717  0.24864245    -0.57400
C1197       C  0.72344932  0.00663144  0.32193647     0.26800
C1198       C  0.77777025  0.01382229  0.32075524     0.26800
C1199       C  0.71940649  0.00365505  0.18009348     0.26800
C1200       C  0.77388930  0.01044607  0.17781858     0.26800
C1201       C  0.68042340  0.98935965  0.27962134     0.35400
C1202       C  0.67906731  0.98759320  0.22529239     0.35400
C1203       C  0.82129152  0.01603469  0.27539877     0.35400
C1204       C  0.81984297  0.01546270  0.22086702     0.35400
C1205       C  0.73307781  0.01629207  0.35403079    -0.22100
C1206       C  0.76739321  0.02032812  0.35341510    -0.22100
C1207       C  0.72718445  0.01206565  0.14720480    -0.22100
C1208       C  0.76149202  0.01515079  0.14552242    -0.22100
C1209       C  0.64970853  0.97550530  0.27086926    -0.23100
C1210       C  0.64895728  0.97412199  0.23641412    -0.23100
C1211       C  0.85425686  0.01872575  0.26457419    -0.23100
C1212       C  0.85334168  0.01867773  0.23016723    -0.23100
C1213       C  0.69032652  0.99742296  0.31273189    -0.18500
C1214       C  0.81155852  0.01477453  0.30964070    -0.18500
C1215       C  0.80833585  0.01274298  0.18710799    -0.18500
C1216       C  0.68676647  0.99464418  0.19135709    -0.18500
H1217       H  0.71716667  0.01931706  0.37588490     0.14400
H1218       H  0.78283645  0.02732465  0.37468881     0.14400
H1219       H  0.71010738  0.01458134  0.12615978     0.14400
H1220       H  0.77541193  0.02046771  0.12285103     0.14400
H1221       H  0.62975381  0.96765203  0.28755237     0.12700
H1222       H  0.62821112  0.96516996  0.22125493     0.12700
H1223       H  0.87670556  0.02055756  0.27987066     0.12700
H1224       H  0.87505783  0.02047081  0.21392781     0.12700
H1225       H  0.75189825  0.99479005  0.27804438     0.26000
H1226       H  0.75045237  0.99359251  0.22275065     0.26000
N1227       N  0.74991916  0.29960203  0.49845622    -0.36800
N1228       N  0.69822642  0.24919381  0.49819201    -0.57400
N1229       N  0.74880910  0.19829844  0.49879217    -0.36800
N1230       N  0.80052360  0.24871805  0.49779362    -0.57400
C1231       C  0.72302537  0.31656690  0.51038972     0.26800
C1232       C  0.77774161  0.31677611  0.50749009     0.26800
C1233       C  0.72112991  0.18098062  0.50788055     0.26800
C1234       C  0.77590877  0.18096989  0.50971014     0.26800
C1235       C  0.68031161  0.27686197  0.49037109     0.35400
C1236       C  0.67989806  0.22250549  0.48833986     0.35400
C1237       C  0.81873696  0.27533100  0.48764330     0.35400
C1238       C  0.81848414  0.22106893  0.49005921     0.35400
C1239       C  0.73395651  0.34458681  0.52805044    -0.22100
C1240       C  0.76862763  0.34489895  0.52587746    -0.22100
C1241       C  0.73062245  0.15236167  0.52529637    -0.22100
C1242       C  0.76534701  0.15238824  0.52653429    -0.22100
C1243       C  0.65046830  0.26784879  0.47476960    -0.23100
C1244       C  0.65024060  0.23323760  0.47339132    -0.23100
C1245       C  0.84835551  0.26455593  0.47271966    -0.23100
C1246       C  0.84828047  0.23000526  0.47444801    -0.23100
C1247       C  0.68932319  0.30933116  0.50141026    -0.18500
C1248       C  0.81051495  0.30870454  0.49643003    -0.18500
C1249       C  0.80944448  0.18854891  0.50064556    -0.18500
C1250       C  0.68814353  0.18917105  0.49735261    -0.18500
H1251       H  0.71851690  0.36361052  0.53988497     0.14400
H1252       H  0.78515164  0.36398585  0.53591236     0.14400
H1253       H  0.71430450  0.13300773  0.53506328     0.14400
H1254       H  0.78103169  0.13295368  0.53733518     0.14400
H1255       H  0.63049737  0.28437819  0.46647383     0.12700
H1256       H  0.63000258  0.21777625  0.46390453     0.12700
H1257       H  0.86848257  0.27996937  0.46301929     0.12700
H1258       H  0.86822757  0.21345388  0.46615224     0.12700
H1259       H  0.74918049  0.28009405  0.48098458     0.26000
H1260       H  0.74927550  0.21817672  0.48180341     0.26000
C1261       C  0.86670950  0.33150489  0.01453795    -0.02000
C1262       C  0.83701401  0.33527598  0.49554157     0.07600
C1263       C  0.83334452  0.36365646  0.47460864    -0.02200
C1264       C  0.85782664  0.38922554  0.47487244    -0.02200
C1265       C  0.88798081  0.38504069  0.49347770     0.07800
C1266       C  0.89330096  0.35427746  0.01068691    -0.02400
Br1267     Br  0.93717813  0.34030155  0.02654665    -0.00900
Br1268     Br  0.87059727  0.29628787  0.04768283    -0.01000
Br1269     Br  0.85090864  0.42823165  0.44683920    -0.00900
Br1270     Br  0.79563510  0.36684811  0.44416772    -0.00900
C1271       C  0.85415716  0.10554927  0.48559676    -0.02000
C1272       C  0.88528849  0.11054518  0.50236792     0.07600
C1273       C  0.89003391  0.14062066  0.02088893    -0.02200
C1274       C  0.86412301  0.16473539  0.02249241    -0.02200
C1275       C  0.83551725  0.16157431  0.50173231     0.07800
C1276       C  0.83147338  0.13234967  0.48224564    -0.02400
Br1277     Br  0.79635766  0.12970313  0.44879058    -0.00900
Br1278     Br  0.83991200  0.06215336  0.46901946    -0.01000
Br1279     Br  0.86718997  0.20120447  0.05437875    -0.00900
Br1280     Br  0.93079172  0.14868428  0.04610374    -0.00900
C1281       C  0.60807488  0.35610747  0.02292693    -0.02000
C1282       C  0.61369452  0.38776498  0.50762859     0.07600
C1283       C  0.64600078  0.39416971  0.49388547    -0.02200
C1284       C  0.66815509  0.36743335  0.48783664    -0.02200
C1285       C  0.66315021  0.33631400  0.50382203     0.07800
C1286       C  0.63393001  0.33181068  0.02344817    -0.02400
Br1287     Br  0.63017061  0.29369967  0.05308173    -0.00900
Br1288     Br  0.56643786  0.34603081  0.04576901    -0.01000
Br1289     Br  0.70404378  0.37358144  0.45579146    -0.00900
Br1290     Br  0.66360445  0.43899936  0.48754833    -0.00900
C1291       C  0.63219023  0.16659184  0.01648649    -0.02000
C1292       C  0.66154467  0.16264965  0.49702500     0.07600
C1293       C  0.66505774  0.13380032  0.47664116    -0.02200
C1294       C  0.64055439  0.10830218  0.47746012    -0.02200
C1295       C  0.61059710  0.11283546  0.49617659     0.07800
C1296       C  0.60563792  0.14359162  0.01350188    -0.02400
Br1297     Br  0.56234837  0.15667655  0.03146070    -0.00900
Br1298     Br  0.62895981  0.20210480  0.04939697    -0.01000
Br1299     Br  0.64732606  0.06860638  0.45029574    -0.00900
Br1300     Br  0.70279036  0.12954672  0.44642537    -0.00900
C1301       C  0.88059678  0.47944946  0.36539182    -0.02000
C1302       C  0.88935448  0.50762011  0.38481715     0.07600
C1303       C  0.87402253  0.03893135  0.37828301    -0.02200
C1304       C  0.84878696  0.04153961  0.35352625    -0.02200
C1305       C  0.83863343  0.01280556  0.33551271     0.07800
C1306       C  0.85490508  0.48184241  0.34124484    -0.02400
Br1307     Br  0.84201372  0.44257743  0.31588280    -0.00900
Br1308     Br  0.90447106  0.43773727  0.37126042    -0.01000
Br1309     Br  0.82833052  0.08441292  0.34393091    -0.00900
Br1310     Br  0.88907832  0.07868960  0.40151089    -0.00900
C1311       C  0.61773391  0.02490118  0.36821212    -0.02000
C1312       C  0.61372616  0.49664342  0.38911367     0.07600
C1313       C  0.63477635  0.46845098  0.38462411    -0.02200
C1314       C  0.65978214  0.46864759  0.35964037    -0.02200
C1315       C  0.66404778  0.99713036  0.33925631     0.07800
C1316       C  0.64298020  0.02525197  0.34351730    -0.02400
Br1317     Br  0.64889302  0.06428160  0.31545084    -0.00900
Br1318     Br  0.58902224  0.06345640  0.37365417    -0.01000
Br1319     Br  0.68774014  0.42965393  0.35250375    -0.00900
Br1320     Br  0.62836509  0.42878638  0.41123745    -0.00900
C1321       C  0.60531215  0.01476440  0.14483119    -0.02000
C1322       C  0.60802153  0.99371444  0.11622982     0.07600
C1323       C  0.63502259  0.47060128  0.11441954    -0.02200
C1324       C  0.65926568  0.46932858  0.14020120    -0.02200
C1325       C  0.65881688  0.99336724  0.16620784     0.07800
C1326       C  0.63175274  0.01626150  0.16830945    -0.02400
Br1327     Br  0.63126115  0.05071430  0.20262597    -0.00900
Br1328     Br  0.56527793  0.04088512  0.15342994    -0.01000
Br1329     Br  0.69284410  0.43417801  0.14032865    -0.00900
Br1330     Br  0.63823153  0.43898429  0.07792393    -0.00900
C1331       C  0.88387963  0.48444867  0.13629131    -0.02000
C1332       C  0.88526176  0.00859787  0.11048696     0.07600
C1333       C  0.86195746  0.03542115  0.11078685    -0.02200
C1334       C  0.83866656  0.03836342  0.13734018    -0.02200
C1335       C  0.83431473  0.01146504  0.15997633     0.07800
C1336       C  0.85635373  0.48373572  0.15824560    -0.02400
Br1337     Br  0.84908399  0.44454901  0.18581911    -0.00900
Br1338     Br  0.92093017  0.45442946  0.14438408    -0.01000
Br1339     Br  0.81414668  0.07977155  0.14369214    -0.00900
Br1340     Br  0.86269026  0.06909793  0.07619843    -0.00900
C1341       C  0.98582591  0.13406571  0.33314650    -0.00700
C1342       C  0.01087385  0.15898940  0.33415250     0.07600
C1343       C  0.53528753  0.15819338  0.35988033    -0.02200
C1344       C  0.53268625  0.13460370  0.38613422    -0.02200
C1345       C  0.00816370  0.10894919  0.38458557     0.07800
C1346       C  0.98629740  0.10767461  0.35653711    -0.02400
Br1347     Br  0.95743412  0.06966854  0.34879443    -0.00900
Br1348     Br  0.94952676  0.13703293  0.30091813    -0.01000
Br1349     Br  0.56397277  0.13694156  0.42310156    -0.00900
Br1350     Br  0.57249608  0.18923196  0.35875893    -0.00900
C1351       C  0.96784425  0.36291595  0.38579660    -0.02000
C1352       C  0.99576418  0.38465897  0.38810156     0.07600
C1353       C  0.52256033  0.38076459  0.36527430    -0.02200
C1354       C  0.52274086  0.35394265  0.34234536    -0.02200
C1355       C  0.99385018  0.33393666  0.33835329     0.07800
C1356       C  0.96581391  0.33942439  0.35935210    -0.02400
Br1357     Br  0.92442938  0.31548916  0.35129540    -0.00900
Br1358     Br  0.93231202  0.36497225  0.41854373    -0.01000
Br1359     Br  0.56279433  0.34428303  0.31654497    -0.00900
Br1360     Br  0.55885560  0.41234679  0.36463050    -0.00900
C1361       C  0.96506502  0.34665293  0.14688910    -0.02000
C1362       C  0.99541500  0.33749025  0.16274902     0.07600
C1363       C  0.52548767  0.35398034  0.15416543    -0.02200
C1364       C  0.52523921  0.37933180  0.12961286    -0.02200
C1365       C  0.99515412  0.38768386  0.11283796     0.07800
C1366       C  0.96501588  0.37129691  0.12155528    -0.02400
Br1367     Br  0.92352667  0.38280713  0.09931463    -0.00900
Br1368     Br  0.92361441  0.32555412  0.16029430    -0.01000
Br1369     Br  0.56617491  0.40264307  0.11889390    -0.00900
Br1370     Br  0.56699304  0.34182455  0.17626622    -0.00900
C1371       C  0.53898087  0.15117947  0.14397878    -0.02000
C1372       C  0.00969687  0.16245060  0.16040501     0.07600
C1373       C  0.97844263  0.14767427  0.15289991    -0.02200
C1374       C  0.97647083  0.12165707  0.12912174    -0.02200
C1375       C  0.00542630  0.11130816  0.11158026     0.07800
C1376       C  0.53690968  0.12547806  0.11971302    -0.02400
Br1377     Br  0.57750139  0.10799442  0.09967719    -0.00900
Br1378     Br  0.58181812  0.17080241  0.15521925    -0.01000
Br1379     Br  0.93437495  0.09907119  0.12185916    -0.00900
Br1380     Br  0.93825855  0.16340448  0.17514867    -0.00900
N1381       N  0.50585353  0.25002384  0.69690312    -0.36800
N1382       N  0.49388834  0.29969055  0.74974155    -0.57400
N1383       N  0.50342766  0.24762707  0.80060468    -0.36800
N1384       N  0.51111958  0.19744465  0.74778245    -0.57400
C1385       C  0.49791283  0.27692102  0.67774811     0.26800
C1386       C  0.50461806  0.22257855  0.67686440     0.26800
C1387       C  0.49528865  0.27369618  0.82087054     0.26800
C1388       C  0.50242275  0.21933869  0.81940307     0.26800
C1389       C  0.49414252  0.32061021  0.72296818     0.35400
C1390       C  0.49230650  0.31935025  0.77744764     0.35400
C1391       C  0.51751964  0.17877126  0.72015208     0.35400
C1392       C  0.51760519  0.17773254  0.77464525     0.35400
C1393       C  0.49268290  0.26657988  0.64484455    -0.22100
C1394       C  0.49659740  0.23231974  0.64435026    -0.22100
C1395       C  0.49018893  0.26186982  0.85326273    -0.22100
C1396       C  0.49375465  0.22764925  0.85213807    -0.22100
C1397       C  0.49147931  0.35360077  0.73366361    -0.23100
C1398       C  0.49009514  0.35280972  0.76804692    -0.23100
C1399       C  0.52808431  0.14694410  0.72949486    -0.23100
C1400       C  0.52848055  0.14639705  0.76398173    -0.23100
C1401       C  0.49591515  0.31067326  0.68881494    -0.18500
C1402       C  0.51152659  0.18905908  0.68664130    -0.18500
C1403       C  0.51086803  0.18642223  0.80853568    -0.18500
C1404       C  0.49325410  0.30795545  0.81126941    -0.18500
H1405       H  0.48635738  0.28201893  0.62338132     0.14400
H1406       H  0.49408155  0.21644454  0.62240035     0.14400
H1407       H  0.48431554  0.27616900  0.87560774     0.14400
H1408       H  0.49105862  0.21095385  0.87338385     0.14400
H1409       H  0.49056998  0.37598236  0.71830624     0.12700
H1410       H  0.48800806  0.37454406  0.78424284     0.12700
H1411       H  0.53448147  0.12613506  0.71319137     0.12700
H1412       H  0.53511360  0.12504162  0.77942884     0.12700
H1413       H  0.51459725  0.25083749  0.72137618     0.26000
H1414       H  0.51243193  0.24954158  0.77634274     0.26000
O1415       O  0.00199615  0.09490202  0.55430213    -0.80300
O1416       O  0.99666358  0.40337608  0.55547198    -0.81900
O1417       O  0.94231817  0.00559866  0.59392807    -0.78900
O1418       O  0.55149419  0.99518903  0.59705282    -0.77300
O1419       O  0.59349915  0.49789771  0.55802402    -0.79100
O1420       O  0.90178861  0.50303920  0.55315973    -0.80000
O1421       O  0.99550077  0.44453840  0.59576498    -0.81300
O1422       O  0.00119149  0.05448623  0.59528127    -0.81600
Eu1423     Eu  0.99767388  0.49952343  0.56752709     2.39200
O1424       O  0.53260212  0.46547642  0.53438779    -0.89100
O1425       O  0.96448011  0.03329652  0.53229548    -0.92700
C1426       C  0.00271992  0.08523110  0.58533565     1.02000
C1427       C  0.99554682  0.41353474  0.58629431     1.01800
C1428       C  0.91141984  0.00583342  0.58408910     1.01700
C1429       C  0.58274886  0.99567481  0.58865055     0.99600
H1430       H  0.94952817  0.45102586  0.54724000     0.29300
O1431       O  0.96400303  0.46467463  0.53346959    -1.01500
H1432       H  0.54674758  0.04743804  0.54810102     0.29400
O1433       O  0.53263265  0.03360429  0.53405999    -1.04100
O1434       O  0.99840341  0.40186518  0.94522054    -0.81300
O1435       O  0.00250273  0.09394690  0.94245645    -0.80800
O1436       O  0.90329057  0.44315620  0.99689574    -0.79300
O1437       O  0.59505246  0.44459406  0.00573341    -0.82600
O1438       O  0.59477521  0.05507356  0.00051328    -0.80500
O1439       O  0.90332828  0.05363787  0.00171254    -0.79100
O1440       O  0.94585778  0.50211941  0.90245523    -0.80600
O1441       O  0.55638696  0.49665940  0.90476944    -0.82500
O1442       O  0.90423275  0.50328654  0.94230192    -0.79300
O1443       O  0.59647872  0.49710531  0.94625987    -0.82000
O1444       O  0.94474747  0.40365025  0.99511900    -0.77700
O1445       O  0.94316442  0.09448812  0.99853424    -0.77700
O1446       O  0.55367365  0.09476551  0.99567886    -0.77400
O1447       O  0.55554756  0.40354428  0.00265176    -0.80900
O1448       O  0.99756171  0.44210562  0.90418262    -0.80300
O1449       O  0.00570778  0.05232604  0.90295599    -0.78600
Eu1450     Eu  0.99959797  0.43073517  0.99998629     2.39800
Eu1451     Eu  0.99896741  0.06722729  0.99855697     2.39600
Eu1452     Eu  0.93069471  0.49882491  0.99831318     2.38400
Eu1453     Eu  0.56765664  0.49928829  0.00124792     2.39900
Eu1454     Eu  0.00053129  0.49786435  0.93125462     2.39800
O1455       O  0.53363764  0.03225951  0.96597036    -0.93000
O1456       O  0.96576549  0.46451517  0.96516096    -0.91900
C1457       C  0.99719252  0.41125708  0.91418893     1.02100
C1458       C  0.00539946  0.08347895  0.91178707     1.00900
C1459       C  0.91358462  0.41239075  0.99508214     1.00200
C1460       C  0.58632856  0.41355227  0.00545478     1.02300
C1461       C  0.58473420  0.08581755  0.99747769     1.01200
C1462       C  0.91232889  0.08460530  0.00081850     1.00000
C1463       C  0.91479167  0.50418801  0.91160361     1.00100
C1464       C  0.58717671  0.49662188  0.91510296     1.02700
H1465       H  0.95208339  0.04704327  0.95005017     0.30100
O1466       O  0.96552496  0.03264746  0.96428462    -1.05200
H1467       H  0.54881539  0.44999475  0.95284106     0.32100
O1468       O  0.53459954  0.46431693  0.96632466    -1.07800
N1469       N  0.75089412  0.00501827  0.80193137    -0.36800
N1470       N  0.69824902  0.99669585  0.75175964    -0.57400
N1471       N  0.74808347  0.00264530  0.69850764    -0.36800
N1472       N  0.80023741  0.01495722  0.74864238    -0.57400
C1473       C  0.72344935  0.00663155  0.82193645     0.26800
C1474       C  0.77777027  0.01382248  0.82075519     0.26800
C1475       C  0.71940650  0.00365499  0.68009337     0.26800
C1476       C  0.77388929  0.01044608  0.67781851     0.26800
C1477       C  0.68042347  0.98935965  0.77962133     0.35400
C1478       C  0.67906740  0.98759311  0.72529235     0.35400
C1479       C  0.82129154  0.01603478  0.77539870     0.35400
C1480       C  0.81984299  0.01546274  0.72086694     0.35400
C1481       C  0.73307782  0.01629214  0.85403079    -0.22100
C1482       C  0.76739322  0.02032824  0.85341504    -0.22100
C1483       C  0.72718443  0.01206561  0.64720471    -0.22100
C1484       C  0.76149199  0.01515087  0.64552244    -0.22100
C1485       C  0.64970861  0.97550525  0.77086919    -0.23100
C1486       C  0.64895737  0.97412187  0.73641405    -0.23100
C1487       C  0.85425692  0.01872575  0.76457415    -0.23100
C1488       C  0.85334175  0.01867771  0.73016716    -0.23100
C1489       C  0.69032655  0.99742303  0.81273187    -0.18500
C1490       C  0.81155855  0.01477469  0.80964063    -0.18500
C1491       C  0.80833585  0.01274302  0.68710794    -0.18500
C1492       C  0.68676652  0.99464416  0.69135706    -0.18500
H1493       H  0.71716671  0.01931708  0.87588492     0.14400
H1494       H  0.78283648  0.02732480  0.87468875     0.14400
H1495       H  0.71010742  0.01458130  0.62615963     0.14400
H1496       H  0.77541189  0.02046792  0.62285107     0.14400
H1497       H  0.62975386  0.96765202  0.78755227     0.12700
H1498       H  0.62821123  0.96516985  0.72125485     0.12700
H1499       H  0.87670561  0.02055748  0.77987064     0.12700
H1500       H  0.87505790  0.02047071  0.71392776     0.12700
H1501       H  0.75189829  0.99479031  0.77804435     0.26000
H1502       H  0.75045238  0.99359243  0.72275053     0.26000
N1503       N  0.74991912  0.29960211  0.99845628    -0.36800
N1504       N  0.69822638  0.24919377  0.99819213    -0.57400
N1505       N  0.74880909  0.19829847  0.99879215    -0.36800
N1506       N  0.80052357  0.24871806  0.99779358    -0.57400
C1507       C  0.72302534  0.31656693  0.01038979     0.26800
C1508       C  0.77774158  0.31677606  0.00749014     0.26800
C1509       C  0.72112989  0.18098056  0.00788049     0.26800
C1510       C  0.77590877  0.18096995  0.00971021     0.26800
C1511       C  0.68031159  0.27686195  0.99037122     0.35400
C1512       C  0.67989802  0.22250546  0.98833988     0.35400
C1513       C  0.81873693  0.27533100  0.98764325     0.35400
C1514       C  0.81848414  0.22106894  0.99005918     0.35400
C1515       C  0.73395648  0.34458684  0.02805055    -0.22100
C1516       C  0.76862760  0.34489886  0.02587754    -0.22100
C1517       C  0.73062242  0.15236161  0.02529636    -0.22100
C1518       C  0.76534698  0.15238831  0.02653436    -0.22100
C1519       C  0.65046833  0.26784878  0.97476966    -0.23100
C1520       C  0.65024063  0.23323762  0.97339129    -0.23100
C1521       C  0.84835546  0.26455596  0.97271960    -0.23100
C1522       C  0.84828045  0.23000529  0.97444796    -0.23100
C1523       C  0.68932316  0.30933116  0.00141037    -0.18500
C1524       C  0.81051491  0.30870453  0.99642999    -0.18500
C1525       C  0.80944449  0.18854894  0.00064557    -0.18500
C1526       C  0.68814351  0.18917100  0.99735257    -0.18500
H1527       H  0.71851694  0.36361057  0.03988509     0.14400
H1528       H  0.78515166  0.36398573  0.03591238     0.14400
H1529       H  0.71430450  0.13300764  0.03506327     0.14400
H1530       H  0.78103169  0.13295378  0.03733528     0.14400
H1531       H  0.63049744  0.28437821  0.96647386     0.12700
H1532       H  0.63000264  0.21777632  0.96390435     0.12700
H1533       H  0.86848253  0.27996940  0.96301923     0.12700
H1534       H  0.86822757  0.21345395  0.96615219     0.12700
H1535       H  0.74918041  0.28009416  0.98098452     0.26000
H1536       H  0.74927548  0.21817673  0.98180341     0.26000
C1537       C  0.86670955  0.33150492  0.51453801    -0.02000
C1538       C  0.83701397  0.33527595  0.99554152     0.07600
C1539       C  0.83334444  0.36365649  0.97460872    -0.02200
C1540       C  0.85782655  0.38922557  0.97487256    -0.02200
C1541       C  0.88798074  0.38504071  0.99347777     0.07800
C1542       C  0.89330103  0.35427745  0.51068688    -0.02400
Br1543     Br  0.93717815  0.34030153  0.52654673    -0.00900
Br1544     Br  0.87059747  0.29628785  0.54768289    -0.01000
Br1545     Br  0.85090862  0.42823162  0.94683928    -0.00900
Br1546     Br  0.79563506  0.36684808  0.94416780    -0.00900
C1547       C  0.85415716  0.10554925  0.98559680    -0.02000
C1548       C  0.88528849  0.11054515  0.00236801     0.07600
C1549       C  0.89003393  0.14062068  0.52088885    -0.02200
C1550       C  0.86412299  0.16473537  0.52249242    -0.02200
C1551       C  0.83551727  0.16157433  0.00173228     0.07800
C1552       C  0.83147343  0.13234968  0.98224562    -0.02400
Br1553     Br  0.79635763  0.12970308  0.94879067    -0.00900
Br1554     Br  0.83991199  0.06215331  0.96901957    -0.01000
Br1555     Br  0.86718995  0.20120441  0.55437885    -0.00900
Br1556     Br  0.93079174  0.14868424  0.54610363    -0.00900
C1557       C  0.60807490  0.35610744  0.52292692    -0.02000
C1558       C  0.61369450  0.38776499  0.00762862     0.07600
C1559       C  0.64600074  0.39416969  0.99388546    -0.02200
C1560       C  0.66815502  0.36743330  0.98783656    -0.02200
C1561       C  0.66315018  0.33631399  0.00382205     0.07800
C1562       C  0.63393007  0.33181068  0.52344819    -0.02400
Br1563     Br  0.63017084  0.29369965  0.55308181    -0.00900
Br1564     Br  0.56643790  0.34603076  0.54576908    -0.01000
Br1565     Br  0.70404373  0.37358137  0.95579137    -0.00900
Br1566     Br  0.66360445  0.43899931  0.98754842    -0.00900
C1567       C  0.63219025  0.16659186  0.51648648    -0.02000
C1568       C  0.66154464  0.16264959  0.99702498     0.07600
C1569       C  0.66505770  0.13380026  0.97664116    -0.02200
C1570       C  0.64055434  0.10830212  0.97746015    -0.02200
C1571       C  0.61059703  0.11283547  0.99617654     0.07800
C1572       C  0.60563797  0.14359160  0.51350193    -0.02400
Br1573     Br  0.56234836  0.15667652  0.53146061    -0.00900
Br1574     Br  0.62895980  0.20210481  0.54939690    -0.01000
Br1575     Br  0.64732587  0.06860630  0.95029580    -0.00900
Br1576     Br  0.70279037  0.12954663  0.94642544    -0.00900
C1577       C  0.88059670  0.47944952  0.86539181    -0.02000
C1578       C  0.88935443  0.50762015  0.88481717     0.07600
C1579       C  0.87402252  0.03893138  0.87828304    -0.02200
C1580       C  0.84878700  0.04153967  0.85352624    -0.02200
C1581       C  0.83863349  0.01280568  0.83551262     0.07800
C1582       C  0.85490508  0.48184252  0.84124476    -0.02400
Br1583     Br  0.84201372  0.44257758  0.81588266    -0.00900
Br1584     Br  0.90447107  0.43773740  0.87126030    -0.01000
Br1585     Br  0.82833049  0.08441292  0.84393101    -0.00900
Br1586     Br  0.88907830  0.07868957  0.90151101    -0.00900
C1587       C  0.61773380  0.02490113  0.86821198    -0.02000
C1588       C  0.61372612  0.49664347  0.88911358     0.07600
C1589       C  0.63477636  0.46845105  0.88462404    -0.02200
C1590       C  0.65978224  0.46864766  0.85964039    -0.02200
C1591       C  0.66404780  0.99713041  0.83925629     0.07800
C1592       C  0.64298012  0.02525196  0.84351718    -0.02400
Br1593     Br  0.64889300  0.06428155  0.81545070    -0.00900
Br1594     Br  0.58902219  0.06345637  0.87365403    -0.01000
Br1595     Br  0.68774034  0.42965395  0.85250387    -0.00900
Br1596     Br  0.62836509  0.42878651  0.91123736    -0.00900
C1597       C  0.60531207  0.01476439  0.64483131    -0.02000
C1598       C  0.60802142  0.99371441  0.61622994     0.07600
C1599       C  0.63502256  0.47060122  0.61441963    -0.02200
C1600       C  0.65926567  0.46932855  0.64020126    -0.02200
C1601       C  0.65881688  0.99336726  0.66620784     0.07800
C1602       C  0.63175275  0.01626155  0.66830947    -0.02400
Br1603     Br  0.63126114  0.05071425  0.70262608    -0.00900
Br1604     Br  0.56527793  0.04088526  0.65343004    -0.01000
Br1605     Br  0.69284410  0.43417798  0.64032856    -0.00900
Br1606     Br  0.63823150  0.43898423  0.57792402    -0.00900
C1607       C  0.88387959  0.48444872  0.63629122    -0.02000
C1608       C  0.88526174  0.00859782  0.61048689     0.07600
C1609       C  0.86195748  0.03542115  0.61078679    -0.02200
C1610       C  0.83866659  0.03836349  0.63734013    -0.02200
C1611       C  0.83431474  0.01146509  0.65997628     0.07800
C1612       C  0.85635368  0.48373573  0.65824548    -0.02400
Br1613     Br  0.84908398  0.44454896  0.68581896    -0.00900
Br1614     Br  0.92092998  0.45442938  0.64438392    -0.01000
Br1615     Br  0.81414670  0.07977168  0.64369201    -0.00900
Br1616     Br  0.86269026  0.06909787  0.57619830    -0.00900
C1617       C  0.98582589  0.13406568  0.83314658    -0.00700
C1618       C  0.01087384  0.15898936  0.83415255     0.07600
C1619       C  0.53528755  0.15819335  0.85988030    -0.02200
C1620       C  0.53268620  0.13460373  0.88613422    -0.02200
C1621       C  0.00816368  0.10894920  0.88458565     0.07800
C1622       C  0.98629734  0.10767461  0.85653720    -0.02400
Br1623     Br  0.95743394  0.06966855  0.84879456    -0.00900
Br1624     Br  0.94952674  0.13703287  0.80091822    -0.01000
Br1625     Br  0.56397279  0.13694150  0.92310146    -0.00900
Br1626     Br  0.57249609  0.18923193  0.85875900    -0.00900
C1627       C  0.96784423  0.36291593  0.88579672    -0.02000
C1628       C  0.99576419  0.38465894  0.88810169     0.07600
C1629       C  0.52256035  0.38076465  0.86527442    -0.02200
C1630       C  0.52274085  0.35394273  0.84234544    -0.02200
C1631       C  0.99385017  0.33393671  0.83835333     0.07800
C1632       C  0.96581389  0.33942444  0.85935214    -0.02400
Br1633     Br  0.92442940  0.31548914  0.85129530    -0.00900
Br1634     Br  0.93231185  0.36497220  0.91854380    -0.01000
Br1635     Br  0.56279432  0.34428299  0.81654510    -0.00900
Br1636     Br  0.55885558  0.41234693  0.86463059    -0.00900
C1637       C  0.96506506  0.34665291  0.64688919    -0.02000
C1638       C  0.99541507  0.33749025  0.66274910     0.07600
C1639       C  0.52548768  0.35398035  0.65416548    -0.02200
C1640       C  0.52523921  0.37933185  0.62961293    -0.02200
C1641       C  0.99515414  0.38768387  0.61283800     0.07800
C1642       C  0.96501592  0.37129689  0.62155536    -0.02400
Br1643     Br  0.92352669  0.38280706  0.59931474    -0.00900
Br1644     Br  0.92361445  0.32555407  0.66029440    -0.01000
Br1645     Br  0.56617490  0.40264322  0.61889403    -0.00900
Br1646     Br  0.56699307  0.34182447  0.67626611    -0.00900
C1647       C  0.53898079  0.15117954  0.64397875    -0.02000
C1648       C  0.00969685  0.16245064  0.66040500     0.07600
C1649       C  0.97844262  0.14767431  0.65289985    -0.02200
C1650       C  0.97647084  0.12165707  0.62912173    -0.02200
C1651       C  0.00542631  0.11130814  0.61158028     0.07800
C1652       C  0.53690965  0.12547809  0.61971305    -0.02400
Br1653     Br  0.57750138  0.10799438  0.59967730    -0.00900
Br1654     Br  0.58181798  0.17080242  0.65521916    -0.01000
Br1655     Br  0.93437496  0.09907111  0.62185924    -0.00900
Br1656     Br  0.93825852  0.16340443  0.67514855    -0.00900
N1657       N  0.50585364  0.75002381  0.19690304    -0.36800
N1658       N  0.49388821  0.79969048  0.24974148    -0.57400
N1659       N  0.50342777  0.74762705  0.30060463    -0.36800
N1660       N  0.51111948  0.69744461  0.24778241    -0.57400
C1661       C  0.49791288  0.77692099  0.17774806     0.26800
C1662       C  0.50461816  0.72257854  0.17686433     0.26800
C1663       C  0.49528873  0.77369617  0.32087050     0.26800
C1664       C  0.50242280  0.71933870  0.31940303     0.26800
C1665       C  0.49414242  0.82061014  0.22296812     0.35400
C1666       C  0.49230643  0.81935014  0.27744757     0.35400
C1667       C  0.51751967  0.67877127  0.22015206     0.35400
C1668       C  0.51760515  0.67773251  0.27464523     0.35400
C1669       C  0.49268288  0.76657983  0.14484458    -0.22100
C1670       C  0.49659749  0.73231975  0.14435024    -0.22100
C1671       C  0.49018899  0.76186986  0.35326268    -0.22100
C1672       C  0.49375467  0.72764931  0.35213797    -0.22100
C1673       C  0.49147923  0.85360065  0.23366357    -0.23100
C1674       C  0.49009514  0.85280955  0.26804682    -0.23100
C1675       C  0.52808443  0.64694415  0.22949489    -0.23100
C1676       C  0.52848062  0.64639703  0.26398177    -0.23100
C1677       C  0.49591514  0.81067323  0.18881488    -0.18500
C1678       C  0.51152665  0.68905905  0.18664125    -0.18500
C1679       C  0.51086806  0.68642222  0.30853567    -0.18500
C1680       C  0.49325411  0.80795541  0.31126935    -0.18500
H1681       H  0.48635722  0.78201884  0.12338137     0.14400
H1682       H  0.49408161  0.71644460  0.12240028     0.14400
H1683       H  0.48431562  0.77616905  0.37560769     0.14400
H1684       H  0.49105858  0.71095391  0.37338375     0.14400
H1685       H  0.49056987  0.87598230  0.21830627     0.12700
H1686       H  0.48800815  0.87454392  0.28424272     0.12700
H1687       H  0.53448167  0.62613512  0.21319138     0.12700
H1688       H  0.53511377  0.62504164  0.27942886     0.12700
H1689       H  0.51459736  0.75083746  0.22137611     0.26000
H1690       H  0.51243208  0.74954156  0.27634271     0.26000
O1691       O  0.00199626  0.59490201  0.05430213    -0.80300
O1692       O  0.99666342  0.90337609  0.05547196    -0.81900
O1693       O  0.94231824  0.50559884  0.09392815    -0.78900
O1694       O  0.55149429  0.49518899  0.09705270    -0.77300
O1695       O  0.59349915  0.99789771  0.05802396    -0.79100
O1696       O  0.90178864  0.00303915  0.05315979    -0.80000
O1697       O  0.99550084  0.94453840  0.09576496    -0.81300
O1698       O  0.00119160  0.55448621  0.09528126    -0.81600
Eu1699     Eu  0.99767383  0.99952345  0.06752705     2.39200
O1700       O  0.53260217  0.96547644  0.03438780    -0.89100
O1701       O  0.96448019  0.53329646  0.03229540    -0.92700
C1702       C  0.00272002  0.58523109  0.08533564     1.02000
C1703       C  0.99554678  0.91353475  0.08629428     1.01800
C1704       C  0.91141990  0.50583348  0.08408917     1.01700
C1705       C  0.58274895  0.49567483  0.08865044     0.99600
H1706       H  0.94952805  0.95102603  0.04724013     0.29300
O1707       O  0.96400294  0.96467467  0.03346964    -1.01500
H1708       H  0.54674767  0.54743803  0.04810101     0.29400
O1709       O  0.53263270  0.53360432  0.03406000    -1.04100
O1710       O  0.99840331  0.90186517  0.44522047    -0.81300
O1711       O  0.00250264  0.59394690  0.44245642    -0.80800
O1712       O  0.90329066  0.94315618  0.49689569    -0.79300
O1713       O  0.59505251  0.94459407  0.50573329    -0.82600
O1714       O  0.59477529  0.55507348  0.50051322    -0.80500
O1715       O  0.90332826  0.55363793  0.50171243    -0.79100
O1716       O  0.94585778  0.00211953  0.40245529    -0.80600
O1717       O  0.55638697  0.99665941  0.40476941    -0.82500
O1718       O  0.90423271  0.00328665  0.44230194    -0.79300
O1719       O  0.59647872  0.99710531  0.44625986    -0.82000
O1720       O  0.94474754  0.90365022  0.49511893    -0.77700
O1721       O  0.94316445  0.59448813  0.49853414    -0.77700
O1722       O  0.55367376  0.59476545  0.49567882    -0.77400
O1723       O  0.55554762  0.90354428  0.50265182    -0.80900
O1724       O  0.99756179  0.94210568  0.40418262    -0.80300
O1725       O  0.00570789  0.55232603  0.40295599    -0.78600
Eu1726     Eu  0.99959801  0.93073516  0.49998625     2.39800
Eu1727     Eu  0.99896747  0.56722727  0.49855695     2.39600
Eu1728     Eu  0.93069473  0.99882492  0.49831318     2.38400
Eu1729     Eu  0.56765666  0.99928827  0.50124792     2.39900
Eu1730     Eu  0.00053129  0.99786440  0.43125462     2.39800
O1731       O  0.53363765  0.53225945  0.46597032    -0.93000
O1732       O  0.96576552  0.96451521  0.46516097    -0.91900
C1733       C  0.99719251  0.91125713  0.41418887     1.02100
C1734       C  0.00539945  0.58347894  0.41178705     1.00900
C1735       C  0.91358470  0.91239072  0.49508208     1.00200
C1736       C  0.58632862  0.91355226  0.50545476     1.02300
C1737       C  0.58473430  0.58581748  0.49747768     1.01200
C1738       C  0.91232889  0.58460536  0.50081840     1.00000
C1739       C  0.91479165  0.00418809  0.41160365     1.00100
C1740       C  0.58717670  0.99662187  0.41510296     1.02700
H1741       H  0.95208347  0.54704327  0.45005011     0.30100
O1742       O  0.96552499  0.53264745  0.46428459    -1.05200
H1743       H  0.54881553  0.94999469  0.45284087     0.32100
O1744       O  0.53459961  0.96431690  0.46632455    -1.07800
N1745       N  0.75089414  0.50501817  0.30193138    -0.36800
N1746       N  0.69824900  0.49669585  0.25175967    -0.57400
N1747       N  0.74808347  0.50264531  0.19850765    -0.36800
N1748       N  0.80023750  0.51495713  0.24864245    -0.57400
C1749       C  0.72344935  0.50663144  0.32193646     0.26800
C1750       C  0.77777029  0.51382243  0.32075525     0.26800
C1751       C  0.71940650  0.50365498  0.18009347     0.26800
C1752       C  0.77388931  0.51044607  0.17781857     0.26800
C1753       C  0.68042341  0.48935968  0.27962134     0.35400
C1754       C  0.67906732  0.48759319  0.22529239     0.35400
C1755       C  0.82129159  0.51603468  0.27539877     0.35400
C1756       C  0.81984303  0.51546273  0.22086701     0.35400
C1757       C  0.73307781  0.51629205  0.35403079    -0.22100
C1758       C  0.76739320  0.52032824  0.35341513    -0.22100
C1759       C  0.72718443  0.51206561  0.14720479    -0.22100
C1760       C  0.76149200  0.51515088  0.14552244    -0.22100
C1761       C  0.64970847  0.47550534  0.27086928    -0.23100
C1762       C  0.64895725  0.47412201  0.23641411    -0.23100
C1763       C  0.85425689  0.51872582  0.26457415    -0.23100
C1764       C  0.85334175  0.51867775  0.23016720    -0.23100
C1765       C  0.69032654  0.49742298  0.31273188    -0.18500
C1766       C  0.81155858  0.51477457  0.30964071    -0.18500
C1767       C  0.80833587  0.51274304  0.18710799    -0.18500
C1768       C  0.68676647  0.49464419  0.19135710    -0.18500
H1769       H  0.71716663  0.51931692  0.37588488     0.14400
H1770       H  0.78283639  0.52732475  0.37468889     0.14400
H1771       H  0.71010736  0.51458130  0.12615978     0.14400
H1772       H  0.77541188  0.52046793  0.12285107     0.14400
H1773       H  0.62975377  0.46765211  0.28755242     0.12700
H1774       H  0.62821111  0.46517004  0.22125489     0.12700
H1775       H  0.87670561  0.52055774  0.27987061     0.12700
H1776       H  0.87505793  0.52047075  0.21392780     0.12700
H1777       H  0.75189833  0.49479023  0.27804435     0.26000
H1778       H  0.75045240  0.49359241  0.22275063     0.26000
N1779       N  0.74991919  0.79960212  0.49845618    -0.36800
N1780       N  0.69822643  0.74919374  0.49819199    -0.57400
N1781       N  0.74880911  0.69829848  0.49879204    -0.36800
N1782       N  0.80052369  0.74871805  0.49779363    -0.57400
C1783       C  0.72302541  0.81656689  0.51038966     0.26800
C1784       C  0.77774165  0.81677604  0.50749001     0.26800
C1785       C  0.72112990  0.68098053  0.50788036     0.26800
C1786       C  0.77590879  0.68096991  0.50971014     0.26800
C1787       C  0.68031165  0.77686193  0.49037107     0.35400
C1788       C  0.67989805  0.72250547  0.48833978     0.35400
C1789       C  0.81873701  0.77533099  0.48764321     0.35400
C1790       C  0.81848420  0.72106894  0.49005918     0.35400
C1791       C  0.73395656  0.84458680  0.52805046    -0.22100
C1792       C  0.76862766  0.84489883  0.52587744    -0.22100
C1793       C  0.73062242  0.65236157  0.52529618    -0.22100
C1794       C  0.76534699  0.65238824  0.52653423    -0.22100
C1795       C  0.65046836  0.76784885  0.47476953    -0.23100
C1796       C  0.65024066  0.73323769  0.47339123    -0.23100
C1797       C  0.84835553  0.76455599  0.47271945    -0.23100
C1798       C  0.84828048  0.73000531  0.47444785    -0.23100
C1799       C  0.68932324  0.80933112  0.50141026    -0.18500
C1800       C  0.81051498  0.80870451  0.49642993    -0.18500
C1801       C  0.80944452  0.68854895  0.50064555    -0.18500
C1802       C  0.68814352  0.68917101  0.49735243    -0.18500
H1803       H  0.71851703  0.86361050  0.53988505     0.14400
H1804       H  0.78515171  0.86398566  0.53591234     0.14400
H1805       H  0.71430445  0.63300762  0.53506304     0.14400
H1806       H  0.78103167  0.63295372  0.53733516     0.14400
H1807       H  0.63049748  0.78437829  0.46647373     0.12700
H1808       H  0.63000264  0.71777640  0.46390430     0.12700
H1809       H  0.86848255  0.77996944  0.46301901     0.12700
H1810       H  0.86822759  0.71345398  0.46615205     0.12700
H1811       H  0.74918047  0.78009410  0.48098444     0.26000
H1812       H  0.74927553  0.71817676  0.48180332     0.26000
C1813       C  0.86670954  0.83150492  0.01453797    -0.02000
C1814       C  0.83701402  0.83527595  0.49554149     0.07600
C1815       C  0.83334448  0.86365646  0.47460863    -0.02200
C1816       C  0.85782660  0.88922555  0.47487249    -0.02200
C1817       C  0.88798081  0.88504069  0.49347769     0.07800
C1818       C  0.89330101  0.85427747  0.01068694    -0.02400
Br1819     Br  0.93717820  0.84030151  0.02654662    -0.00900
Br1820     Br  0.87059737  0.79628782  0.04768280    -0.01000
Br1821     Br  0.85090872  0.92823159  0.44683918    -0.00900
Br1822     Br  0.79563501  0.86684806  0.44416773    -0.00900
C1823       C  0.85415715  0.60554927  0.48559678    -0.02000
C1824       C  0.88528849  0.61054521  0.50236793     0.07600
C1825       C  0.89003396  0.64062072  0.02088882    -0.02200
C1826       C  0.86412304  0.66473543  0.02249235    -0.02200
C1827       C  0.83551729  0.66157436  0.50173225     0.07800
C1828       C  0.83147341  0.63234970  0.48224560    -0.02400
Br1829     Br  0.79635771  0.62970308  0.44879054    -0.00900
Br1830     Br  0.83991208  0.56215331  0.46901946    -0.01000
Br1831     Br  0.86719006  0.70120443  0.05437875    -0.00900
Br1832     Br  0.93079184  0.64868425  0.04610353    -0.00900
C1833       C  0.60807483  0.85610742  0.02292679    -0.02000
C1834       C  0.61369453  0.88776495  0.50762861     0.07600
C1835       C  0.64600078  0.89416966  0.49388547    -0.02200
C1836       C  0.66815511  0.86743329  0.48783661    -0.02200
C1837       C  0.66315023  0.83631395  0.50382200     0.07800
C1838       C  0.63393004  0.83181068  0.02344811    -0.02400
Br1839     Br  0.63017072  0.79369964  0.05308170    -0.00900
Br1840     Br  0.56643780  0.84603074  0.04576895    -0.01000
Br1841     Br  0.70404386  0.87358138  0.45579147    -0.00900
Br1842     Br  0.66360437  0.93899930  0.48754832    -0.00900
C1843       C  0.63219027  0.66659185  0.01648645    -0.02000
C1844       C  0.66154465  0.66264962  0.49702486     0.07600
C1845       C  0.66505769  0.63380031  0.47664100    -0.02200
C1846       C  0.64055438  0.60830213  0.47746005    -0.02200
C1847       C  0.61059714  0.61283540  0.49617656     0.07800
C1848       C  0.60563800  0.64359160  0.01350188    -0.02400
Br1849     Br  0.56234846  0.65667651  0.03146073    -0.00900
Br1850     Br  0.62895992  0.70210476  0.04939700    -0.01000
Br1851     Br  0.64732597  0.56860630  0.45029571    -0.00900
Br1852     Br  0.70279043  0.62954662  0.44642536    -0.00900
C1853       C  0.88059674  0.97944947  0.36539182    -0.02000
C1854       C  0.88935445  0.00762014  0.38481714     0.07600
C1855       C  0.87402259  0.53893134  0.37828301    -0.02200
C1856       C  0.84878705  0.54153961  0.35352625    -0.02200
C1857       C  0.83863349  0.51280559  0.33551272     0.07800
C1858       C  0.85490504  0.98184239  0.34124482    -0.02400
Br1859     Br  0.84201361  0.94257737  0.31588282    -0.00900
Br1860     Br  0.90447117  0.93773738  0.37126041    -0.01000
Br1861     Br  0.82833062  0.58441290  0.34393091    -0.00900
Br1862     Br  0.88907843  0.57868956  0.40151091    -0.00900
C1863       C  0.61773391  0.52490111  0.36821212    -0.02000
C1864       C  0.61372611  0.99664345  0.38911360     0.07600
C1865       C  0.63477622  0.96845097  0.38462400    -0.02200
C1866       C  0.65978209  0.96864758  0.35964034    -0.02200
C1867       C  0.66404778  0.49713036  0.33925630     0.07800
C1868       C  0.64298018  0.52525194  0.34351731    -0.02400
Br1869     Br  0.64889290  0.56428155  0.31545082    -0.00900
Br1870     Br  0.58902230  0.56345636  0.37365419    -0.01000
Br1871     Br  0.68774002  0.92965385  0.35250374    -0.00900
Br1872     Br  0.62836497  0.92878649  0.41123745    -0.00900
C1873       C  0.60531206  0.51476441  0.14483124    -0.02000
C1874       C  0.60802150  0.49371448  0.11622983     0.07600
C1875       C  0.63502258  0.97060117  0.11441957    -0.02200
C1876       C  0.65926569  0.96932850  0.14020123    -0.02200
C1877       C  0.65881684  0.49336727  0.16620785     0.07800
C1878       C  0.63175268  0.51626150  0.16830947    -0.02400
Br1879     Br  0.63126122  0.55071427  0.20262598    -0.00900
Br1880     Br  0.56527785  0.54088524  0.15342994    -0.01000
Br1881     Br  0.69284418  0.93417796  0.14032865    -0.00900
Br1882     Br  0.63823161  0.93898422  0.07792393    -0.00900
C1883       C  0.88387970  0.98444871  0.13629137    -0.02000
C1884       C  0.88526172  0.50859785  0.11048692     0.07600
C1885       C  0.86195744  0.53542119  0.11078680    -0.02200
C1886       C  0.83866651  0.53836348  0.13734012    -0.02200
C1887       C  0.83431471  0.51146512  0.15997630     0.07800
C1888       C  0.85635377  0.98373569  0.15824562    -0.02400
Br1889     Br  0.84908410  0.94454893  0.18581911    -0.00900
Br1890     Br  0.92093010  0.95442937  0.14438406    -0.01000
Br1891     Br  0.81414659  0.57977167  0.14369211    -0.00900
Br1892     Br  0.86269039  0.56909806  0.07619846    -0.00900
C1893       C  0.98582592  0.63406563  0.33314646    -0.00700
C1894       C  0.01087386  0.65898933  0.33415247     0.07600
C1895       C  0.53528758  0.65819334  0.35988030    -0.02200
C1896       C  0.53268622  0.63460369  0.38613422    -0.02200
C1897       C  0.00816367  0.60894921  0.38458560     0.07800
C1898       C  0.98629738  0.60767457  0.35653711    -0.02400
Br1899     Br  0.95743405  0.56966850  0.34879445    -0.00900
Br1900     Br  0.94952668  0.63703286  0.30091814    -0.01000
Br1901     Br  0.56397268  0.63694151  0.42310158    -0.00900
Br1902     Br  0.57249619  0.68923188  0.35875892    -0.00900
C1903       C  0.96784424  0.86291596  0.38579661    -0.02000
C1904       C  0.99576417  0.88465900  0.38810158     0.07600
C1905       C  0.52256034  0.88076473  0.36527426    -0.02200
C1906       C  0.52274082  0.85394277  0.34234534    -0.02200
C1907       C  0.99385019  0.83393669  0.33835328     0.07800
C1908       C  0.96581389  0.83942442  0.35935207    -0.02400
Br1909     Br  0.92442934  0.81548912  0.35129540    -0.00900
Br1910     Br  0.93231193  0.86497219  0.41854371    -0.01000
Br1911     Br  0.56279425  0.84428319  0.31654494    -0.00900
Br1912     Br  0.55885566  0.91234693  0.36463049    -0.00900
C1913       C  0.96506506  0.84665292  0.14688908    -0.02000
C1914       C  0.99541502  0.83749024  0.16274901     0.07600
C1915       C  0.52548765  0.85398032  0.15416542    -0.02200
C1916       C  0.52523918  0.87933178  0.12961286    -0.02200
C1917       C  0.99515413  0.88768386  0.11283792     0.07800
C1918       C  0.96501593  0.87129689  0.12155526    -0.02400
Br1919     Br  0.92352673  0.88280707  0.09931460    -0.00900
Br1920     Br  0.92361446  0.82555424  0.16029433    -0.01000
Br1921     Br  0.56617485  0.90264302  0.11889389    -0.00900
Br1922     Br  0.56699297  0.84182448  0.17626623    -0.00900
C1923       C  0.53898084  0.65117953  0.14397872    -0.02000
C1924       C  0.00969690  0.66245064  0.16040495     0.07600
C1925       C  0.97844266  0.64767429  0.15289984    -0.02200
C1926       C  0.97647090  0.62165705  0.12912171    -0.02200
C1927       C  0.00542638  0.61130815  0.11158025     0.07800
C1928       C  0.53690966  0.62547811  0.11971297    -0.02400
Br1929     Br  0.57750130  0.60799436  0.09967719    -0.00900
Br1930     Br  0.58181807  0.67080237  0.15521926    -0.01000
Br1931     Br  0.93437505  0.59907110  0.12185915    -0.00900
Br1932     Br  0.93825861  0.66340440  0.17514867    -0.00900
N1933       N  0.50585362  0.75002376  0.69690309    -0.36800
N1934       N  0.49388842  0.79969049  0.74974156    -0.57400
N1935       N  0.50342774  0.74762705  0.80060469    -0.36800
N1936       N  0.51111946  0.69744459  0.74778242    -0.57400
C1937       C  0.49791289  0.77692094  0.67774810     0.26800
C1938       C  0.50461813  0.72257849  0.67686438     0.26800
C1939       C  0.49528876  0.77369617  0.82087055     0.26800
C1940       C  0.50242270  0.71933867  0.81940304     0.26800
C1941       C  0.49414248  0.82061015  0.72296817     0.35400
C1942       C  0.49230661  0.81935020  0.77744764     0.35400
C1943       C  0.51751957  0.67877122  0.72015207     0.35400
C1944       C  0.51760513  0.67773252  0.77464522     0.35400
C1945       C  0.49268289  0.76657981  0.64484454    -0.22100
C1946       C  0.49659747  0.73231968  0.64435024    -0.22100
C1947       C  0.49018898  0.76186979  0.85326274    -0.22100
C1948       C  0.49375458  0.72764922  0.85213803    -0.22100
C1949       C  0.49147920  0.85360075  0.73366356    -0.23100
C1950       C  0.49009518  0.85280967  0.76804690    -0.23100
C1951       C  0.52808435  0.64694413  0.72949490    -0.23100
C1952       C  0.52848059  0.64639707  0.76398175    -0.23100
C1953       C  0.49591519  0.81067318  0.68881495    -0.18500
C1954       C  0.51152660  0.68905900  0.68664128    -0.18500
C1955       C  0.51086799  0.68642222  0.80853566    -0.18500
C1956       C  0.49325420  0.80795542  0.81126942    -0.18500
H1957       H  0.48635730  0.78201883  0.62338132     0.14400
H1958       H  0.49408165  0.71644448  0.62240033     0.14400
H1959       H  0.48431566  0.77616896  0.87560777     0.14400
H1960       H  0.49105853  0.71095379  0.87338380     0.14400
H1961       H  0.49056978  0.87598232  0.71830617     0.12700
H1962       H  0.48800810  0.87454399  0.78424284     0.12700
H1963       H  0.53448164  0.62613510  0.71319143     0.12700
H1964       H  0.53511375  0.62504167  0.77942886     0.12700
H1965       H  0.51459734  0.75083740  0.72137618     0.26000
H1966       H  0.51243214  0.74954152  0.77634277     0.26000
O1967       O  0.00199626  0.59490195  0.55430213    -0.80300
O1968       O  0.99666342  0.90337601  0.55547198    -0.81900
O1969       O  0.94231820  0.50559877  0.59392807    -0.78900
O1970       O  0.55149427  0.49518892  0.59705278    -0.77300
O1971       O  0.59349906  0.99789761  0.55802404    -0.79100
O1972       O  0.90178859  0.00303910  0.55315973    -0.80000
O1973       O  0.99550083  0.94453833  0.59576497    -0.81300
O1974       O  0.00119160  0.55448618  0.59528129    -0.81600
Eu1975     Eu  0.99767383  0.99952341  0.56752709     2.39200
O1976       O  0.53260215  0.96547648  0.53438779    -0.89100
O1977       O  0.96448015  0.53329657  0.53229549    -0.92700
C1978       C  0.00272002  0.58523104  0.58533566     1.02000
C1979       C  0.99554678  0.91353468  0.58629431     1.01800
C1980       C  0.91141987  0.50583354  0.58408909     1.01700
C1981       C  0.58274894  0.49567482  0.58865052     0.99600
H1982       H  0.94952807  0.95102595  0.54724001     0.29300
O1983       O  0.96400298  0.96467464  0.53346960    -1.01500
H1984       H  0.54674769  0.54743801  0.54810103     0.29400
O1985       O  0.53263273  0.53360428  0.53406001    -1.04100
O1986       O  0.99840329  0.90186516  0.94522054    -0.81300
O1987       O  0.00250264  0.59394694  0.94245644    -0.80800
O1988       O  0.90329066  0.94315620  0.99689573    -0.79300
O1989       O  0.59505247  0.94459407  0.00573339    -0.82600
O1990       O  0.59477528  0.55507356  0.00051328    -0.80500
O1991       O  0.90332826  0.55363790  0.00171255    -0.79100
O1992       O  0.94585778  0.00211948  0.90245525    -0.80600
O1993       O  0.55638695  0.99665937  0.90476941    -0.82500
O1994       O  0.90423272  0.00328660  0.94230191    -0.79300
O1995       O  0.59647869  0.99710526  0.94625987    -0.82000
O1996       O  0.94474753  0.90365022  0.99511899    -0.77700
O1997       O  0.94316443  0.59448811  0.99853424    -0.77700
O1998       O  0.55367374  0.59476554  0.99567886    -0.77400
O1999       O  0.55554757  0.90354431  0.00265170    -0.80900
O2000       O  0.99756179  0.94210562  0.90418264    -0.80300
O2001       O  0.00570788  0.55232602  0.90295604    -0.78600
Eu2002     Eu  0.99959797  0.93073520  0.99998627     2.39800
Eu2003     Eu  0.99896745  0.56722735  0.99855699     2.39600
Eu2004     Eu  0.93069471  0.99882492  0.99831316     2.38400
Eu2005     Eu  0.56765664  0.99928827  0.00124794     2.39900
Eu2006     Eu  0.00053129  0.99786440  0.93125461     2.39800
O2007       O  0.53363767  0.53225957  0.96597028    -0.93000
O2008       O  0.96576552  0.96451522  0.96516094    -0.91900
C2009       C  0.99719250  0.91125708  0.91418893     1.02100
C2010       C  0.00539946  0.58347896  0.91178707     1.00900
C2011       C  0.91358470  0.91239073  0.99508214     1.00200
C2012       C  0.58632857  0.91355229  0.00545472     1.02300
C2013       C  0.58473429  0.58581756  0.99747769     1.01200
C2014       C  0.91232888  0.58460532  0.00081849     1.00000
C2015       C  0.91479165  0.00418807  0.91160361     1.00100
C2016       C  0.58717668  0.99662185  0.91510296     1.02700
H2017       H  0.95208353  0.54704313  0.95005022     0.30100
O2018       O  0.96552503  0.53264743  0.96428466    -1.05200
H2019       H  0.54881552  0.94999466  0.95284097     0.32100
O2020       O  0.53459960  0.96431690  0.96632461    -1.07800
N2021       N  0.75089413  0.50501820  0.80193139    -0.36800
N2022       N  0.69824897  0.49669596  0.75175968    -0.57400
N2023       N  0.74808348  0.50264534  0.69850764    -0.36800
N2024       N  0.80023749  0.51495729  0.74864238    -0.57400
C2025       C  0.72344933  0.50663154  0.82193644     0.26800
C2026       C  0.77777028  0.51382246  0.82075519     0.26800
C2027       C  0.71940650  0.50365507  0.68009340     0.26800
C2028       C  0.77388931  0.51044614  0.67781852     0.26800
C2029       C  0.68042341  0.48935970  0.77962136     0.35400
C2030       C  0.67906736  0.48759321  0.72529240     0.35400
C2031       C  0.82129160  0.51603481  0.77539871     0.35400
C2032       C  0.81984307  0.51546274  0.72086694     0.35400
C2033       C  0.73307778  0.51629223  0.85403074    -0.22100
C2034       C  0.76739316  0.52032834  0.85341500    -0.22100
C2035       C  0.72718442  0.51206572  0.64720474    -0.22100
C2036       C  0.76149198  0.51515090  0.64552243    -0.22100
C2037       C  0.64970851  0.47550527  0.77086930    -0.23100
C2038       C  0.64895735  0.47412194  0.73641416    -0.23100
C2039       C  0.85425695  0.51872581  0.76457412    -0.23100
C2040       C  0.85334184  0.51867767  0.73016714    -0.23100
C2041       C  0.69032654  0.49742304  0.81273188    -0.18500
C2042       C  0.81155858  0.51477468  0.80964065    -0.18500
C2043       C  0.80833588  0.51274308  0.68710793    -0.18500
C2044       C  0.68676649  0.49464423  0.69135710    -0.18500
H2045       H  0.71716664  0.51931721  0.87588486     0.14400
H2046       H  0.78283636  0.52732493  0.87468873     0.14400
H2047       H  0.71010738  0.51458144  0.62615970     0.14400
H2048       H  0.77541188  0.52046785  0.62285104     0.14400
H2049       H  0.62975379  0.46765198  0.78755239     0.12700
H2050       H  0.62821125  0.46516986  0.72125495     0.12700
H2051       H  0.87670565  0.52055765  0.77987061     0.12700
H2052       H  0.87505801  0.52047062  0.71392777     0.12700
H2053       H  0.75189830  0.49479022  0.77804435     0.26000
H2054       H  0.75045239  0.49359242  0.72275055     0.26000
N2055       N  0.74991916  0.79960207  0.99845629    -0.36800
N2056       N  0.69822635  0.74919377  0.99819214    -0.57400
N2057       N  0.74880909  0.69829839  0.99879216    -0.36800
N2058       N  0.80052363  0.74871803  0.99779355    -0.57400
C2059       C  0.72302539  0.81656689  0.01038979     0.26800
C2060       C  0.77774163  0.81677604  0.00749011     0.26800
C2061       C  0.72112990  0.68098060  0.00788045     0.26800
C2062       C  0.77590876  0.68096994  0.00971015     0.26800
C2063       C  0.68031159  0.77686198  0.99037112     0.35400
C2064       C  0.67989801  0.72250549  0.98833991     0.35400
C2065       C  0.81873700  0.77533098  0.98764324     0.35400
C2066       C  0.81848414  0.72106892  0.99005912     0.35400
C2067       C  0.73395654  0.84458678  0.02805057    -0.22100
C2068       C  0.76862765  0.84489883  0.02587754    -0.22100
C2069       C  0.73062242  0.65236167  0.02529629    -0.22100
C2070       C  0.76534697  0.65238831  0.02653432    -0.22100
C2071       C  0.65046832  0.76784885  0.97476950    -0.23100
C2072       C  0.65024064  0.73323768  0.97339129    -0.23100
C2073       C  0.84835555  0.76455599  0.97271955    -0.23100
C2074       C  0.84828046  0.73000531  0.97444793    -0.23100
C2075       C  0.68932321  0.80933116  0.00141030    -0.18500
C2076       C  0.81051496  0.80870452  0.99642998    -0.18500
C2077       C  0.80944449  0.68854890  0.00064552    -0.18500
C2078       C  0.68814350  0.68917102  0.99735252    -0.18500
H2079       H  0.71851700  0.86361050  0.03988511     0.14400
H2080       H  0.78515170  0.86398571  0.03591242     0.14400
H2081       H  0.71430448  0.63300770  0.03506312     0.14400
H2082       H  0.78103162  0.63295374  0.03733522     0.14400
H2083       H  0.63049745  0.78437822  0.96647361     0.12700
H2084       H  0.63000263  0.71777636  0.96390438     0.12700
H2085       H  0.86848259  0.77996946  0.96301918     0.12700
H2086       H  0.86822759  0.71345395  0.96615219     0.12700
H2087       H  0.74918044  0.78009411  0.98098454     0.26000
H2088       H  0.74927550  0.71817670  0.98180333     0.26000
C2089       C  0.86670954  0.83150493  0.51453796    -0.02000
C2090       C  0.83701400  0.83527596  0.99554152     0.07600
C2091       C  0.83334447  0.86365650  0.97460869    -0.02200
C2092       C  0.85782659  0.88922557  0.97487257    -0.02200
C2093       C  0.88798079  0.88504072  0.99347779     0.07800
C2094       C  0.89330103  0.85427746  0.51068687    -0.02400
Br2095     Br  0.93717820  0.84030165  0.52654674    -0.00900
Br2096     Br  0.87059735  0.79628797  0.54768293    -0.01000
Br2097     Br  0.85090872  0.92823158  0.94683926    -0.00900
Br2098     Br  0.79563498  0.86684822  0.94416784    -0.00900
C2099       C  0.85415714  0.60554922  0.98559686    -0.02000
C2100       C  0.88528850  0.61054518  0.00236797     0.07600
C2101       C  0.89003397  0.64062074  0.52088881    -0.02200
C2102       C  0.86412307  0.66473549  0.52249232    -0.02200
C2103       C  0.83551724  0.66157431  0.00173231     0.07800
C2104       C  0.83147338  0.63234962  0.98224570    -0.02400
Br2105     Br  0.79635770  0.62970300  0.94879064    -0.00900
Br2106     Br  0.83991208  0.56215325  0.96901957    -0.01000
Br2107     Br  0.86719006  0.70120452  0.55437878    -0.00900
Br2108     Br  0.93079180  0.64868418  0.54610362    -0.00900
C2109       C  0.60807486  0.85610738  0.52292686    -0.02000
C2110       C  0.61369448  0.88776497  0.00762851     0.07600
C2111       C  0.64600074  0.89416973  0.99388543    -0.02200
C2112       C  0.66815507  0.86743337  0.98783654    -0.02200
C2113       C  0.66315022  0.83631402  0.00382199     0.07800
C2114       C  0.63393003  0.83181061  0.52344807    -0.02400
Br2115     Br  0.63017070  0.79369955  0.55308159    -0.00900
Br2116     Br  0.56643783  0.84603070  0.54576904    -0.01000
Br2117     Br  0.70404382  0.87358153  0.95579139    -0.00900
Br2118     Br  0.66360433  0.93899943  0.98754842    -0.00900
C2119       C  0.63219029  0.66659184  0.51648644    -0.02000
C2120       C  0.66154466  0.66264961  0.99702492     0.07600
C2121       C  0.66505773  0.63380026  0.97664111    -0.02200
C2122       C  0.64055439  0.60830211  0.97746007    -0.02200
C2123       C  0.61059712  0.61283544  0.99617653     0.07800
C2124       C  0.60563802  0.64359157  0.51350188    -0.02400
Br2125     Br  0.56234845  0.65667645  0.53146062    -0.00900
Br2126     Br  0.62895990  0.70210489  0.54939685    -0.01000
Br2127     Br  0.64732594  0.56860628  0.95029562    -0.00900
Br2128     Br  0.70279045  0.62954656  0.94642547    -0.00900
C2129       C  0.88059666  0.97944950  0.86539183    -0.02000
C2130       C  0.88935443  0.00762015  0.88481714     0.07600
C2131       C  0.87402257  0.53893141  0.87828305    -0.02200
C2132       C  0.84878707  0.54153971  0.85352624    -0.02200
C2133       C  0.83863351  0.51280571  0.83551265     0.07800
C2134       C  0.85490505  0.98184250  0.84124474    -0.02400
Br2135     Br  0.84201361  0.94257754  0.81588268    -0.00900
Br2136     Br  0.90447092  0.93773734  0.87126053    -0.01000
Br2137     Br  0.82833062  0.58441302  0.84393101    -0.00900
Br2138     Br  0.88907841  0.57868966  0.90151099    -0.00900
C2139       C  0.61773384  0.52490114  0.86821201    -0.02000
C2140       C  0.61372610  0.99664347  0.88911359     0.07600
C2141       C  0.63477627  0.96845103  0.88462403    -0.02200
C2142       C  0.65978215  0.96864766  0.85964037    -0.02200
C2143       C  0.66404781  0.49713041  0.83925628     0.07800
C2144       C  0.64298013  0.52525199  0.84351719    -0.02400
Br2145     Br  0.64889289  0.56428165  0.81545072    -0.00900
Br2146     Br  0.58902208  0.56345630  0.87365402    -0.01000
Br2147     Br  0.68774025  0.92965404  0.85250387    -0.00900
Br2148     Br  0.62836496  0.92878646  0.91123733    -0.00900
C2149       C  0.60531203  0.51476434  0.64483134    -0.02000
C2150       C  0.60802147  0.49371444  0.61622992     0.07600
C2151       C  0.63502252  0.97060119  0.61441966    -0.02200
C2152       C  0.65926566  0.96932851  0.64020126    -0.02200
C2153       C  0.65881685  0.49336727  0.66620788     0.07800
C2154       C  0.63175265  0.51626146  0.66830955    -0.02400
Br2155     Br  0.63126100  0.55071419  0.70262611    -0.00900
Br2156     Br  0.56527783  0.54088517  0.65343004    -0.01000
Br2157     Br  0.69284416  0.93417794  0.64032854    -0.00900
Br2158     Br  0.63823160  0.93898436  0.57792399    -0.00900
C2159       C  0.88387967  0.98444867  0.63629131    -0.02000
C2160       C  0.88526173  0.50859793  0.61048687     0.07600
C2161       C  0.86195750  0.53542127  0.61078679    -0.02200
C2162       C  0.83866654  0.53836352  0.63734008    -0.02200
C2163       C  0.83431472  0.51146514  0.65997624     0.07800
C2164       C  0.85635377  0.98373571  0.65824558    -0.02400
Br2165     Br  0.84908407  0.94454889  0.68581898    -0.00900
Br2166     Br  0.92093009  0.95442934  0.64438413    -0.01000
Br2167     Br  0.81414656  0.57977164  0.64369200    -0.00900
Br2168     Br  0.86269037  0.56909803  0.57619833    -0.00900
C2169       C  0.98582592  0.63406562  0.83314651    -0.00700
C2170       C  0.01087385  0.65898933  0.83415250     0.07600
C2171       C  0.53528757  0.65819330  0.85988025    -0.02200
C2172       C  0.53268622  0.63460366  0.88613416    -0.02200
C2173       C  0.00816368  0.60894920  0.88458562     0.07800
C2174       C  0.98629738  0.60767456  0.85653716    -0.02400
Br2175     Br  0.95743405  0.56966847  0.84879455    -0.00900
Br2176     Br  0.94952666  0.63703280  0.80091824    -0.01000
Br2177     Br  0.56397270  0.63694144  0.92310148    -0.00900
Br2178     Br  0.57249617  0.68923184  0.85875899    -0.00900
C2179       C  0.96784424  0.86291588  0.88579672    -0.02000
C2180       C  0.99576418  0.88465892  0.88810170     0.07600
C2181       C  0.52256030  0.88076469  0.86527432    -0.02200
C2182       C  0.52274081  0.85394276  0.84234540    -0.02200
C2183       C  0.99385018  0.83393667  0.83835335     0.07800
C2184       C  0.96581390  0.83942438  0.85935215    -0.02400
Br2185     Br  0.92442930  0.81548928  0.85129527    -0.00900
Br2186     Br  0.93231193  0.86497212  0.91854382    -0.01000
Br2187     Br  0.56279427  0.84428313  0.81654505    -0.00900
Br2188     Br  0.55885549  0.91234693  0.86463037    -0.00900
C2189       C  0.96506505  0.84665287  0.64688918    -0.02000
C2190       C  0.99541501  0.83749018  0.66274909     0.07600
C2191       C  0.52548770  0.85398027  0.65416549    -0.02200
C2192       C  0.52523919  0.87933175  0.62961295    -0.02200
C2193       C  0.99515412  0.88768382  0.61283800     0.07800
C2194       C  0.96501591  0.87129684  0.62155536    -0.02400
Br2195     Br  0.92352673  0.88280700  0.59931472    -0.00900
Br2196     Br  0.92361446  0.82555417  0.66029444    -0.01000
Br2197     Br  0.56617484  0.90264297  0.61889399    -0.00900
Br2198     Br  0.56699314  0.84182439  0.67626610    -0.00900
C2199       C  0.53898080  0.65117946  0.64397877    -0.02000
C2200       C  0.00969690  0.66245059  0.66040500     0.07600
C2201       C  0.97844266  0.64767427  0.65289986    -0.02200
C2202       C  0.97647088  0.62165702  0.62912173    -0.02200
C2203       C  0.00542637  0.61130808  0.61158029     0.07800
C2204       C  0.53690961  0.62547802  0.61971306    -0.02400
Br2205     Br  0.57750129  0.60799429  0.59967728    -0.00900
Br2206     Br  0.58181806  0.67080233  0.65521915    -0.01000
Br2207     Br  0.93437504  0.59907103  0.62185925    -0.00900
Br2208     Br  0.93825860  0.66340456  0.67514853    -0.00900
loop_ 
_geom_bond_atom_site_label_1 
_geom_bond_atom_site_label_2 
_geom_bond_distance 
_geom_bond_site_symmetry_2 
_ccdc_geom_bond_type 
N1            C6   1.354       .  A
N1            C5   1.353   1_455  A
N1           H33   1.034       .  S
N2            C9   1.353       .  A
N2           C10   1.353       .  A
N3            C8   1.354       .  A
N3            C7   1.353   1_455  A
N3           H34   1.033       .  S
N4           C11   1.351       .  A
N4           C12   1.351       .  A
C5           C13   1.387       .  A
C5           C21   1.417       .  A
C6           C22   1.418       .  A
C6           C14   1.387   1_455  A
C7           C15   1.388       .  A
C7           C24   1.421       .  A
C8           C23   1.421       .  A
C8           C16   1.387   1_455  A
C9           C21   1.416       .  A
C9           C17   1.385       .  A
C10          C24   1.421       .  A
C10          C18   1.388       .  A
C11          C19   1.386       .  A
C11          C22   1.415       .  A
C12          C20   1.387       .  A
C12          C23   1.417       .  A
C13          C14   1.374       .  A
C13          H25   1.082       .  S
C14          H26   1.082       .  S
C15          C16   1.372       .  A
C15          H27   1.081       .  S
C16          H28   1.082       .  S
C17          C18   1.369       .  A
C17          H29   1.082       .  S
C18          H30   1.082       .  S
C19          C20   1.372       .  A
C19          H31   1.082       .  S
C20          H32   1.082       .  S
C21        C1362   1.490       .  S
C22        C1372   1.489       .  S
C23        C1342   1.496       .  S
C24        C1355   1.494       .  S
O35          C46   1.294       .  A
O35        Eu347   2.478   1_554  S
O36          C47   1.292       .  A
O36        Eu346   2.466   1_554  S
O37          C48   1.289       .  A
O37        Eu595   2.452   1_545  S
O38          C49   1.288       .  A
O38       Eu1699   2.446   1_455  S
O39         C601   1.295       .  A
O39        Eu349   2.481       .  S
O40         C600   1.293       .  A
O40        Eu348   2.473   1_554  S
O41          C47   1.292       .  A
O41         Eu43   2.466       .  S
O42          C46   1.290       .  A
O42        Eu595   2.456   1_545  S
Eu43        O589   2.452       .  S
Eu43       O1694   2.446       .  S
Eu43        O594   2.456       .  S
Eu43         O51   2.358       .  S
Eu43       O1709   2.360       .  S
Eu43        O597   2.347       .  S
Eu43       O1148   2.345       .  S
O44       Eu1147   2.345   1_455  S
O44        Eu349   2.349       .  S
O44       Eu1450   2.348   1_454  S
O45        Eu595   2.347   1_545  S
O45        Eu347   2.352   1_554  S
O45        Eu900   2.350   1_544  S
C46         C271   1.476       .  S
C47         C261   1.476       .  S
C48         C228   1.483       .  S
C48         O592   1.293       .  A
C49         C218   1.489       .  S
C49         O591   1.295       .  A
H50          O51   0.965       .  S
O51        Eu348   2.357   1_554  S
O51        Eu346   2.366   1_554  S
H52          O53   0.965       .  S
O53       Eu1699   2.360   1_445  S
O53       Eu1451   2.361   1_454  S
O53        Eu901   2.347   1_545  S
O54          C77   1.291       .  A
O54         Eu70   2.463       .  S
O55          C78   1.294       .  A
O55         Eu71   2.478       .  S
O56          C79   1.294       .  A
O56         Eu72   2.475       .  S
O57          C80   1.286       .  A
O57         Eu73   2.441       .  S
O58          C81   1.294       .  A
O58        Eu625   2.474   1_545  S
O59          C82   1.287       .  A
O59        Eu624   2.442   1_545  S
O60          C83   1.291       .  A
O60         Eu74   2.462       .  S
O61          C84   1.291       .  A
O61       Eu1178   2.461       .  S
O62          C83   1.292       .  A
O62         Eu72   2.469       .  S
O63          C84   1.293       .  A
O63         Eu73   2.472       .  S
O64          C79   1.287       .  A
O64         Eu70   2.444       .  S
O65          C82   1.293       .  A
O65         Eu71   2.469       .  S
O66          C81   1.287       .  A
O66       Eu1175   2.443   1_455  S
O67          C80   1.293       .  A
O67       Eu1174   2.475   1_455  S
O68          C77   1.293       .  A
O68         Eu74   2.472       .  S
O69          C78   1.290       .  A
O69        Eu626   2.456   1_545  S
Eu70        O312   2.466       .  S
Eu70       O1171   2.475       .  S
Eu70         O76   2.352       .  S
Eu70       O1424   2.348       .  S
Eu70        O327   2.366       .  S
Eu70       O1192   2.354       .  S
Eu71        O311   2.478       .  S
Eu71       O1170   2.443       .  S
Eu71         O86   2.351       .  S
Eu71        O321   2.352       .  S
Eu71       O1433   2.361       .  S
Eu71       O1179   2.349       .  S
Eu72        O316   2.473       .  S
Eu72        O611   2.442       .  S
Eu72         O76   2.355       .  S
Eu72        O873   2.350       .  S
Eu72        O327   2.357       .  S
Eu72        O638   2.364       .  S
Eu73        O315   2.481       .  S
Eu73        O610   2.474       .  S
Eu73         O88   2.367       .  S
Eu73        O320   2.349       .  S
Eu73        O881   2.347       .  S
Eu73        O627   2.349       .  S
Eu74       O1165   2.461       .  S
Eu74        O621   2.456       .  S
Eu74         O76   2.349       .  S
Eu74       O1731   2.350       .  S
Eu74        O638   2.362       .  S
Eu74       O1192   2.358       .  S
O75       Eu1175   2.349   1_455  S
O75        Eu625   2.349   1_545  S
O75       Eu1730   2.350   1_545  S
C77         C248   1.484       .  S
C78         C241   1.489       .  S
C79         C161   1.495       .  S
C80         C178   1.498       .  S
C81         C191   1.492       .  S
C82         C168   1.491       .  S
C83         C198   1.475       .  S
C84         C208   1.479       .  S
H85          O86   0.967       .  S
O86        Eu624   2.364   1_545  S
O86        Eu626   2.362   1_545  S
H87          O88   0.965       .  S
O88       Eu1174   2.354   1_455  S
O88       Eu1178   2.358       .  S
N89          C94   1.351       .  A
N89          C93   1.353       .  A
N89         H121   1.034   1_545  S
N90          C97   1.349       .  A
N90          C98   1.349       .  A
N91          C96   1.354       .  A
N91          C95   1.355       .  A
N91         H122   1.034   1_545  S
N92          C99   1.354       .  A
N92         C100   1.353       .  A
C93         C101   1.387       .  A
C93         C109   1.416   1_545  A
C94         C110   1.416       .  A
C94         C102   1.388       .  A
C95         C103   1.387       .  A
C95         C112   1.421   1_545  A
C96         C111   1.422       .  A
C96         C104   1.388       .  A
C97         C109   1.411       .  A
C97         C105   1.386       .  A
C98         C112   1.413       .  A
C98         C106   1.387       .  A
C99         C107   1.385       .  A
C99         C110   1.418       .  A
C100        C108   1.389       .  A
C100        C111   1.422       .  A
C101        C102   1.375       .  A
C101        H113   1.082       .  S
C102        H114   1.082       .  S
C103        C104   1.372       .  A
C103        H115   1.082       .  S
C104        H116   1.080       .  S
C105        C106   1.372       .  A
C105        H117   1.082       .  S
C106        H118   1.082       .  S
C107        C108   1.369       .  A
C107        H119   1.082       .  S
C108        H120   1.082       .  S
C109        C211   1.486       .  S
C110        C201   1.491       .  S
C111        C231   1.496       .  S
C112        C221   1.495       .  S
N123        C128   1.351       .  A
N123        C127   1.351       .  A
N123        H155   1.043       .  S
N124        C131   1.348       .  A
N124        C132   1.349       .  A
N125        C130   1.350       .  A
N125        C129   1.351       .  A
N125        H156   1.042       .  S
N126        C133   1.349       .  A
N126        C134   1.347       .  A
C127        C135   1.389       .  A
C127        C143   1.417       .  A
C128        C144   1.413       .  A
C128        C136   1.386       .  A
C129        C137   1.387       .  A
C129        C146   1.414       .  A
C130        C145   1.416       .  A
C130        C138   1.388       .  A
C131        C143   1.413       .  A
C131        C139   1.387       .  A
C132        C146   1.414       .  A
C132        C140   1.387       .  A
C133        C141   1.387       .  A
C133        C144   1.413       .  A
C134        C142   1.386       .  A
C134        C145   1.411       .  A
C135        C136   1.382       .  A
C135        H147   1.082       .  S
C136        H148   1.082       .  S
C137        C138   1.382       .  A
C137        H149   1.082       .  S
C138        H150   1.082       .  S
C139        C140   1.381       .  A
C139        H151   1.082       .  S
C140        H152   1.082       .  S
C141        C142   1.379       .  A
C141        H153   1.082       .  S
C142        H154   1.082       .  S
C143        C181   1.498       .  S
C144        C158   1.497       .  S
C145        C171   1.493       .  S
C146        C188   1.498       .  S
C157        C162   1.404       .  A
C157        C434   1.409   1_554  A
C157       Br164   1.933       .  S
C158        C159   1.413       .  A
C158        C433   1.409       .  A
C159        C160   1.411       .  A
C159       Br166   1.930       .  S
C160        C161   1.418       .  A
C160       Br165   1.933       .  S
C161        C438   1.420       .  A
C162        C437   1.420   1_554  A
C162       Br163   1.936       .  S
C167        C168   1.420       .  A
C167        C172   1.403       .  A
C167       Br174   1.936       .  S
C168        C445   1.419       .  A
C169        C170   1.409       .  A
C169        C444   1.419       .  A
C169       Br176   1.933       .  S
C170        C447   1.411       .  A
C170       Br175   1.932       .  S
C171        C172   1.408       .  A
C171        C446   1.411       .  A
C172       Br173   1.931       .  S
C177        C182   1.411       .  A
C177        C454   1.420       .  A
C177       Br184   1.933       .  S
C178        C179   1.421       .  A
C178        C453   1.420       .  A
C179        C180   1.402       .  A
C179       Br186   1.938       .  S
C180        C181   1.409       .  A
C180       Br185   1.931       .  S
C181        C458   1.413       .  A
C182        C457   1.413       .  A
C182       Br183   1.930       .  S
C187        C192   1.405       .  A
C187        C464   1.410   1_554  A
C187       Br194   1.931       .  S
C188        C189   1.413       .  A
C188        C463   1.410       .  A
C189        C190   1.410       .  A
C189       Br196   1.931       .  S
C190        C191   1.417       .  A
C190       Br195   1.933       .  S
C191        C468   1.419       .  A
C192        C467   1.419   1_554  A
C192       Br193   1.935       .  S
C197        C198   1.407       .  A
C197        C202   1.405       .  A
C197       Br204   1.927       .  S
C198        C751   1.412       .  A
C199        C200   1.409       .  A
C199        C750   1.412       .  A
C199       Br206   1.930       .  S
C200        C201   1.410       .  A
C200       Br205   1.929       .  S
C201        C754   1.411   1_545  A
C202        C753   1.411       .  A
C202       Br203   1.931       .  S
C207        C212   1.406       .  A
C207        C760   1.410   1_545  A
C207       Br214   1.925       .  S
C208        C209   1.411       .  A
C208        C759   1.410       .  A
C209        C210   1.407       .  A
C209       Br216   1.922       .  S
C210        C763   1.407       .  A
C210       Br215   1.930       .  S
C211        C212   1.408   1_565  A
C211        C762   1.407       .  A
C212       Br213   1.931       .  S
C217        C218   1.417   1_545  A
C217        C222   1.407       .  A
C217       Br224   1.931       .  S
C218        C771   1.415       .  A
C219        C220   1.408       .  A
C219        C770   1.415       .  A
C219       Br226   1.925       .  S
C220        C773   1.409       .  A
C220       Br225   1.933       .  S
C221        C222   1.412   1_565  A
C221        C772   1.409       .  A
C222       Br223   1.935       .  S
C227        C232   1.402       .  A
C227        C780   1.409       .  A
C227       Br234   1.923       .  S
C228        C229   1.413       .  A
C228        C779   1.409   1_545  A
C229        C230   1.411       .  A
C229       Br236   1.924       .  S
C230        C231   1.412       .  A
C230       Br235   1.932       .  S
C231        C784   1.411   1_545  A
C232        C783   1.411       .  A
C232       Br233   1.932       .  S
C237        C238   1.409       .  A
C237        C242   1.405       .  A
C237       Br244   1.933       .  S
C238       C1343   1.410       .  A
C238       C1127   1.496       .  S
C239        C240   1.410       .  A
C239       C1342   1.410       .  A
C239       Br246   1.932       .  S
C240       C1345   1.416       .  A
C240       Br245   1.927       .  S
C241        C242   1.415       .  A
C241       C1344   1.416       .  A
C242       Br243   1.927       .  S
C247        C248   1.413       .  A
C247        C252   1.410       .  A
C247       Br254   1.925       .  S
C248       C1353   1.409       .  A
C249        C250   1.405       .  A
C249       C1352   1.409   1_455  A
C249       Br256   1.918       .  S
C250       C1355   1.409   1_455  A
C250       Br255   1.934       .  S
C251        C252   1.411       .  A
C251       C1354   1.409       .  A
C251       C1128   1.494       .  S
C252       Br253   1.931       .  S
C257        C258   1.409       .  A
C257        C262   1.408       .  A
C257       Br264   1.929       .  S
C258       C1363   1.409       .  A
C258       C1125   1.490       .  S
C259        C260   1.406       .  A
C259       C1362   1.409   1_455  A
C259       Br266   1.930       .  S
C260       C1365   1.409   1_455  A
C260       Br265   1.925       .  S
C261        C262   1.411       .  A
C261       C1364   1.409       .  A
C262       Br263   1.926       .  S
C267        C272   1.409       .  A
C267       C1372   1.409       .  A
C267       Br274   1.928       .  S
C268        C269   1.409       .  A
C268       C1371   1.409       .  A
C268       C1126   1.489       .  S
C269        C270   1.405       .  A
C269       Br276   1.931       .  S
C270        C271   1.408       .  A
C270       Br275   1.924       .  S
C271       C1376   1.412       .  A
C272       C1375   1.412       .  A
C272       Br273   1.930       .  S
N277        C282   1.354       .  A
N277        C281   1.353   1_455  A
N277        H309   1.034       .  S
N278        C285   1.353       .  A
N278        C286   1.353       .  A
N279        C284   1.354       .  A
N279        C283   1.353   1_455  A
N279        H310   1.033       .  S
N280        C287   1.351       .  A
N280        C288   1.351       .  A
C281        C289   1.387       .  A
C281        C297   1.417       .  A
C282        C298   1.418       .  A
C282        C290   1.387   1_455  A
C283        C291   1.388       .  A
C283        C300   1.421       .  A
C284        C299   1.421       .  A
C284        C292   1.387   1_455  A
C285        C297   1.416       .  A
C285        C293   1.385       .  A
C286        C300   1.421       .  A
C286        C294   1.388       .  A
C287        C295   1.386       .  A
C287        C298   1.415       .  A
C288        C296   1.387       .  A
C288        C299   1.417       .  A
C289        C290   1.374       .  A
C289        H301   1.082       .  S
C290        H302   1.082       .  S
C291        C292   1.372       .  A
C291        H303   1.081       .  S
C292        H304   1.082       .  S
C293        C294   1.369       .  A
C293        H305   1.082       .  S
C294        H306   1.082       .  S
C295        C296   1.372       .  A
C295        H307   1.082       .  S
C296        H308   1.082       .  S
C297       C1638   1.490       .  S
C298       C1648   1.489       .  S
C299       C1618   1.496       .  S
C300       C1631   1.494       .  S
O311        C322   1.294       .  A
O312        C323   1.292       .  A
O313        C324   1.289       .  A
O313       Eu871   2.452   1_545  S
O314        C325   1.288       .  A
O314      Eu1975   2.446   1_455  S
O315        C877   1.295       .  A
O316        C876   1.293       .  A
O317        C323   1.292       .  A
O317       Eu319   2.466       .  S
O318        C322   1.290       .  A
O318       Eu871   2.456   1_545  S
Eu319       O865   2.452       .  S
Eu319      O1970   2.446       .  S
Eu319       O870   2.456       .  S
Eu319      O1985   2.360       .  S
Eu319       O873   2.347       .  S
Eu319      O1424   2.345       .  S
Eu319       O327   2.358       .  S
O320      Eu1423   2.345   1_455  S
O320      Eu1174   2.348   1_455  S
O321       Eu871   2.347   1_545  S
O321       Eu624   2.350   1_545  S
C322        C547   1.476       .  S
C323        C537   1.476       .  S
C324        C504   1.483       .  S
C324        O868   1.293       .  A
C325        C494   1.489       .  S
C325        O867   1.295       .  A
H326        O327   0.965       .  S
H328        O329   0.965       .  S
O329      Eu1975   2.360   1_445  S
O329      Eu1175   2.361   1_455  S
O329       Eu625   2.347   1_545  S
O330        C353   1.291       .  A
O330       Eu346   2.463       .  S
O331        C354   1.294       .  A
O331       Eu347   2.478       .  S
O332        C355   1.294       .  A
O332       Eu348   2.475       .  S
O333        C356   1.286       .  A
O333       Eu349   2.441       .  S
O334        C357   1.294   1_554  A
O334       Eu901   2.474   1_545  S
O335        C358   1.287       .  A
O335       Eu900   2.442   1_544  S
O336        C359   1.291       .  A
O336       Eu350   2.462       .  S
O337        C360   1.291       .  A
O337      Eu1454   2.461       .  S
O338        C359   1.292       .  A
O338       Eu348   2.469       .  S
O339        C360   1.293       .  A
O339       Eu349   2.472   1_556  S
O340        C355   1.287       .  A
O340       Eu346   2.444       .  S
O341        C358   1.293   1_556  A
O341       Eu347   2.469       .  S
O342        C357   1.287       .  A
O342      Eu1451   2.443   1_455  S
O343        C356   1.293       .  A
O343      Eu1450   2.475   1_454  S
O344        C353   1.293       .  A
O344       Eu350   2.472       .  S
O345        C354   1.290       .  A
O345       Eu902   2.456   1_545  S
Eu346      O1447   2.475   1_556  S
Eu346      O1148   2.348   1_556  S
Eu346      O1468   2.354       .  S
Eu346       O352   2.352       .  S
Eu347      O1446   2.443       .  S
Eu347      O1157   2.361   1_556  S
Eu347      O1455   2.349       .  S
Eu347       O362   2.351       .  S
Eu348       O887   2.442   1_556  S
Eu348       O597   2.350   1_556  S
Eu348       O914   2.364       .  S
Eu348       O352   2.355       .  S
Eu349       O886   2.474       .  S
Eu349       O605   2.347       .  S
Eu349       O903   2.349   1_554  S
Eu349       O364   2.367   1_554  S
Eu350      O1441   2.461       .  S
Eu350       O897   2.456       .  S
Eu350      O2007   2.350       .  S
Eu350       O914   2.362       .  S
Eu350      O1468   2.358       .  S
Eu350       O352   2.349       .  S
O351      Eu1451   2.349   1_455  S
O351       Eu901   2.349   1_546  S
O351      Eu2006   2.350   1_545  S
C353        C524   1.484       .  S
C354        C517   1.489       .  S
C355        C437   1.495       .  S
C356        C454   1.498       .  S
C357        C467   1.492       .  S
C358        C444   1.491       .  S
C359        C474   1.475       .  S
C360        C484   1.479       .  S
H361        O362   0.967       .  S
O362       Eu900   2.364   1_545  S
O362       Eu902   2.362   1_545  S
H363        O364   0.965       .  S
O364      Eu1450   2.354   1_455  S
O364      Eu1454   2.358       .  S
N365        C370   1.351       .  A
N365        C369   1.353       .  A
N365        H397   1.034   1_545  S
N366        C373   1.349       .  A
N366        C374   1.349       .  A
N367        C372   1.354       .  A
N367        C371   1.355       .  A
N367        H398   1.034   1_545  S
N368        C375   1.354       .  A
N368        C376   1.353       .  A
C369        C377   1.387       .  A
C369        C385   1.416   1_545  A
C370        C386   1.416       .  A
C370        C378   1.388       .  A
C371        C379   1.387       .  A
C371        C388   1.421   1_545  A
C372        C387   1.422       .  A
C372        C380   1.388       .  A
C373        C385   1.411       .  A
C373        C381   1.386       .  A
C374        C388   1.413       .  A
C374        C382   1.387       .  A
C375        C383   1.385       .  A
C375        C386   1.418       .  A
C376        C384   1.389       .  A
C376        C387   1.422       .  A
C377        C378   1.375       .  A
C377        H389   1.082       .  S
C378        H390   1.082       .  S
C379        C380   1.372       .  A
C379        H391   1.082       .  S
C380        H392   1.080       .  S
C381        C382   1.372       .  A
C381        H393   1.082       .  S
C382        H394   1.082       .  S
C383        C384   1.369       .  A
C383        H395   1.082       .  S
C384        H396   1.082       .  S
C385        C487   1.486       .  S
C386        C477   1.491       .  S
C387        C507   1.496       .  S
C388        C497   1.495       .  S
N399        C404   1.351   1_556  A
N399        C403   1.351   1_556  A
N399        H431   1.043       .  S
N400        C407   1.348       .  A
N400        C408   1.349       .  A
N401        C406   1.350   1_556  A
N401        C405   1.351   1_556  A
N401        H432   1.042       .  S
N402        C409   1.349       .  A
N402        C410   1.347       .  A
C403        C411   1.389       .  A
C403        C419   1.417       .  A
C404        C420   1.413   1_554  A
C404        C412   1.386       .  A
C405        C413   1.387       .  A
C405        C422   1.414   1_554  A
C406        C421   1.416       .  A
C406        C414   1.388       .  A
C407        C419   1.413   1_556  A
C407        C415   1.387       .  A
C408        C422   1.414       .  A
C408        C416   1.387       .  A
C409        C417   1.387       .  A
C409        C420   1.413       .  A
C410        C418   1.386       .  A
C410        C421   1.411   1_556  A
C411        C412   1.382       .  A
C411        H423   1.082       .  S
C412        H424   1.082       .  S
C413        C414   1.382       .  A
C413        H425   1.082       .  S
C414        H426   1.082       .  S
C415        C416   1.381       .  A
C415        H427   1.082       .  S
C416        H428   1.082       .  S
C417        C418   1.379       .  A
C417        H429   1.082       .  S
C418        H430   1.082       .  S
C419        C457   1.498       .  S
C420        C434   1.497       .  S
C421        C447   1.493       .  S
C422        C464   1.498       .  S
C433        C438   1.404       .  A
C433       Br440   1.933       .  S
C434        C435   1.413       .  A
C435        C436   1.411       .  A
C435       Br442   1.930       .  S
C436        C437   1.418       .  A
C436       Br441   1.933       .  S
C438       Br439   1.936       .  S
C443        C444   1.420   1_556  A
C443        C448   1.403       .  A
C443       Br450   1.936       .  S
C445        C446   1.409       .  A
C445       Br452   1.933       .  S
C446       Br451   1.932       .  S
C447        C448   1.408   1_554  A
C448       Br449   1.931       .  S
C453        C458   1.411       .  A
C453       Br460   1.933       .  S
C454        C455   1.421   1_554  A
C455        C456   1.402       .  A
C455       Br462   1.938       .  S
C456        C457   1.409   1_556  A
C456       Br461   1.931       .  S
C458       Br459   1.930       .  S
C463        C468   1.405       .  A
C463       Br470   1.931       .  S
C464        C465   1.413       .  A
C465        C466   1.410       .  A
C465       Br472   1.931       .  S
C466        C467   1.417       .  A
C466       Br471   1.933       .  S
C468       Br469   1.935       .  S
C473        C474   1.407       .  A
C473        C478   1.405       .  A
C473       Br480   1.927       .  S
C474       C1027   1.412       .  A
C475       C1026   1.412       .  A
C475        C476   1.409       .  A
C475       Br482   1.930       .  S
C476        C477   1.410       .  A
C476       Br481   1.929       .  S
C477       C1030   1.411   1_545  A
C478       C1029   1.411       .  A
C478       Br479   1.931       .  S
C483       C1036   1.410   1_545  A
C483        C488   1.406       .  A
C483       Br490   1.925       .  S
C484       C1035   1.410       .  A
C484        C485   1.411       .  A
C485        C486   1.407       .  A
C485       Br492   1.922       .  S
C486       C1039   1.407       .  A
C486       Br491   1.930       .  S
C487       C1038   1.407       .  A
C487        C488   1.408   1_565  A
C488       Br489   1.931       .  S
C493        C494   1.417   1_545  A
C493        C498   1.407       .  A
C493       Br500   1.931       .  S
C494       C1047   1.415       .  A
C495       C1046   1.415       .  A
C495        C496   1.408       .  A
C495       Br502   1.925       .  S
C496       C1049   1.409       .  A
C496       Br501   1.933       .  S
C497       C1048   1.409       .  A
C497        C498   1.412   1_565  A
C498       Br499   1.935       .  S
C503       C1056   1.409       .  A
C503        C508   1.402       .  A
C503       Br510   1.923       .  S
C504       C1055   1.409   1_545  A
C504        C505   1.413       .  A
C505        C506   1.411       .  A
C505       Br512   1.924       .  S
C506        C507   1.412       .  A
C506       Br511   1.932       .  S
C507       C1060   1.411   1_545  A
C508       C1059   1.411       .  A
C508       Br509   1.932       .  S
C513        C514   1.409       .  A
C513        C518   1.405       .  A
C513       Br520   1.933       .  S
C514       C1619   1.410       .  A
C514       C1403   1.496       .  S
C515       C1618   1.410       .  A
C515        C516   1.410       .  A
C515       Br522   1.932       .  S
C516       C1621   1.416       .  A
C516       Br521   1.927       .  S
C517       C1620   1.416       .  A
C517        C518   1.415       .  A
C518       Br519   1.927       .  S
C523        C524   1.413       .  A
C523        C528   1.410       .  A
C523       Br530   1.925       .  S
C524       C1629   1.409       .  A
C525       C1628   1.409   1_455  A
C525        C526   1.405       .  A
C525       Br532   1.918       .  S
C526       C1631   1.409   1_455  A
C526       Br531   1.934       .  S
C527       C1630   1.409       .  A
C527        C528   1.411       .  A
C527       C1404   1.494       .  S
C528       Br529   1.931       .  S
C533        C534   1.409       .  A
C533        C538   1.408       .  A
C533       Br540   1.929       .  S
C534       C1639   1.409       .  A
C534       C1401   1.490       .  S
C535       C1638   1.409   1_455  A
C535        C536   1.406       .  A
C535       Br542   1.930       .  S
C536       C1641   1.409   1_455  A
C536       Br541   1.925       .  S
C537       C1640   1.409       .  A
C537        C538   1.411       .  A
C538       Br539   1.926       .  S
C543       C1648   1.409       .  A
C543        C548   1.409       .  A
C543       Br550   1.928       .  S
C544       C1647   1.409       .  A
C544        C545   1.409       .  A
C544       C1402   1.489       .  S
C545        C546   1.405       .  A
C545       Br552   1.931       .  S
C546        C547   1.408       .  A
C546       Br551   1.924       .  S
C547       C1652   1.412       .  A
C548       C1651   1.412       .  A
C548       Br549   1.930       .  S
N553        C558   1.354       .  A
N553        C557   1.353   1_455  A
N553        H585   1.034       .  S
N554        C561   1.353       .  A
N554        C562   1.353       .  A
N555        C560   1.354       .  A
N555        C559   1.353   1_455  A
N555        H586   1.033       .  S
N556        C563   1.351       .  A
N556        C564   1.351       .  A
C557        C565   1.387       .  A
C557        C573   1.417       .  A
C558        C574   1.418       .  A
C558        C566   1.387   1_455  A
C559        C567   1.388       .  A
C559        C576   1.421       .  A
C560        C575   1.421       .  A
C560        C568   1.387   1_455  A
C561        C573   1.416       .  A
C561        C569   1.385       .  A
C562        C576   1.421       .  A
C562        C570   1.388       .  A
C563        C571   1.386       .  A
C563        C574   1.415       .  A
C564        C572   1.387       .  A
C564        C575   1.417       .  A
C565        C566   1.374       .  A
C565        H577   1.082       .  S
C566        H578   1.082       .  S
C567        C568   1.372       .  A
C567        H579   1.081       .  S
C568        H580   1.082       .  S
C569        C570   1.369       .  A
C569        H581   1.082       .  S
C570        H582   1.082       .  S
C571        C572   1.372       .  A
C571        H583   1.082       .  S
C572        H584   1.082       .  S
C573       C1914   1.490       .  S
C574       C1924   1.489       .  S
C575       C1894   1.496       .  S
C576       C1907   1.494       .  S
O587        C598   1.294       .  A
O587       Eu899   2.478   1_554  S
O588        C599   1.292       .  A
O588       Eu898   2.466   1_554  S
O589        C600   1.289       .  A
O590        C601   1.288       .  A
O590      Eu1147   2.446   1_455  S
O591       Eu901   2.481       .  S
O592       Eu900   2.473   1_544  S
O593        C599   1.292       .  A
O593       Eu595   2.466       .  S
O594        C598   1.290       .  A
Eu595      O1142   2.446       .  S
Eu595      O1157   2.360   1_565  S
Eu595      O1700   2.345       .  S
Eu595       O603   2.358       .  S
O596      Eu1699   2.345   1_455  S
O596       Eu901   2.349       .  S
O596      Eu2002   2.348   1_454  S
O597       Eu899   2.352   1_554  S
C598        C823   1.476       .  S
C599        C813   1.476       .  S
C600        C780   1.483       .  S
C601        C770   1.489       .  S
H602        O603   0.965       .  S
O603       Eu900   2.357   1_554  S
O603       Eu898   2.366   1_554  S
H604        O605   0.965       .  S
O605      Eu1147   2.360   1_455  S
O605      Eu2003   2.361   1_454  S
O606        C629   1.291       .  A
O606       Eu622   2.463       .  S
O607        C630   1.294       .  A
O607       Eu623   2.478       .  S
O608        C631   1.294       .  A
O608       Eu624   2.475       .  S
O609        C632   1.286       .  A
O609       Eu625   2.441       .  S
O610        C633   1.294       .  A
O611        C634   1.287       .  A
O612        C635   1.291       .  A
O612       Eu626   2.462   1_545  S
O613        C636   1.291       .  A
O613      Eu1730   2.461       .  S
O614        C635   1.292       .  A
O614       Eu624   2.469   1_545  S
O615        C636   1.293       .  A
O615       Eu625   2.472       .  S
O616        C631   1.287       .  A
O616       Eu622   2.444       .  S
O617        C634   1.293       .  A
O617       Eu623   2.469       .  S
O618        C633   1.287       .  A
O618      Eu1727   2.443   1_455  S
O619        C632   1.293       .  A
O619      Eu1726   2.475   1_455  S
O620        C629   1.293       .  A
O620       Eu626   2.472       .  S
O621        C630   1.290       .  A
Eu622       O864   2.466       .  S
Eu622      O1723   2.475       .  S
Eu622      O1976   2.348       .  S
Eu622       O879   2.366       .  S
Eu622      O1744   2.354       .  S
Eu622       O628   2.352       .  S
Eu623       O863   2.478       .  S
Eu623      O1722   2.443       .  S
Eu623       O873   2.352       .  S
Eu623      O1985   2.361       .  S
Eu623      O1731   2.349       .  S
Eu623       O638   2.351       .  S
Eu624       O868   2.473   1_565  S
Eu624       O879   2.357       .  S
Eu624       O628   2.355       .  S
Eu625       O867   2.481       .  S
Eu625       O872   2.349       .  S
Eu625       O640   2.367       .  S
Eu626      O1717   2.461       .  S
Eu626      O1179   2.350   1_565  S
Eu626      O1744   2.358       .  S
Eu626       O628   2.349       .  S
O627      Eu1727   2.349   1_455  S
O627      Eu1178   2.350       .  S
C629        C800   1.484       .  S
C630        C793   1.489       .  S
C631        C713   1.495       .  S
C632        C730   1.498       .  S
C633        C743   1.492       .  S
C634        C720   1.491       .  S
C635        C750   1.475       .  S
C636        C760   1.479       .  S
H637        O638   0.967       .  S
H639        O640   0.965       .  S
O640      Eu1726   2.354   1_455  S
O640      Eu1730   2.358       .  S
N641        C646   1.351       .  A
N641        C645   1.353       .  A
N641        H673   1.034       .  S
N642        C649   1.349       .  A
N642        C650   1.349       .  A
N643        C648   1.354       .  A
N643        C647   1.355       .  A
N643        H674   1.034       .  S
N644        C651   1.354       .  A
N644        C652   1.353       .  A
C645        C653   1.387       .  A
C645        C661   1.416       .  A
C646        C662   1.416       .  A
C646        C654   1.388       .  A
C647        C655   1.387       .  A
C647        C664   1.421       .  A
C648        C663   1.422       .  A
C648        C656   1.388       .  A
C649        C661   1.411       .  A
C649        C657   1.386       .  A
C650        C664   1.413       .  A
C650        C658   1.387       .  A
C651        C659   1.385       .  A
C651        C662   1.418       .  A
C652        C660   1.389       .  A
C652        C663   1.422       .  A
C653        C654   1.375       .  A
C653        H665   1.082       .  S
C654        H666   1.082       .  S
C655        C656   1.372       .  A
C655        H667   1.082       .  S
C656        H668   1.080       .  S
C657        C658   1.372       .  A
C657        H669   1.082       .  S
C658        H670   1.082       .  S
C659        C660   1.369       .  A
C659        H671   1.082       .  S
C660        H672   1.082       .  S
C661        C763   1.486       .  S
C662        C753   1.491       .  S
C663        C783   1.496       .  S
C664        C773   1.495       .  S
N675        C680   1.351       .  A
N675        C679   1.351       .  A
N675        H707   1.043       .  S
N676        C683   1.348       .  A
N676        C684   1.349       .  A
N677        C682   1.350       .  A
N677        C681   1.351       .  A
N677        H708   1.042       .  S
N678        C685   1.349       .  A
N678        C686   1.347       .  A
C679        C687   1.389       .  A
C679        C695   1.417       .  A
C680        C696   1.413       .  A
C680        C688   1.386       .  A
C681        C689   1.387       .  A
C681        C698   1.414       .  A
C682        C697   1.416       .  A
C682        C690   1.388       .  A
C683        C695   1.413       .  A
C683        C691   1.387       .  A
C684        C698   1.414       .  A
C684        C692   1.387       .  A
C685        C693   1.387       .  A
C685        C696   1.413       .  A
C686        C694   1.386       .  A
C686        C697   1.411       .  A
C687        C688   1.382       .  A
C687        H699   1.082       .  S
C688        H700   1.082       .  S
C689        C690   1.382       .  A
C689        H701   1.082       .  S
C690        H702   1.082       .  S
C691        C692   1.381       .  A
C691        H703   1.082       .  S
C692        H704   1.082       .  S
C693        C694   1.379       .  A
C693        H705   1.082       .  S
C694        H706   1.082       .  S
C695        C733   1.498       .  S
C696        C710   1.497       .  S
C697        C723   1.493       .  S
C698        C740   1.498       .  S
C709        C986   1.409   1_554  A
C709        C714   1.404       .  A
C709       Br716   1.933       .  S
C710        C985   1.409       .  A
C710        C711   1.413       .  A
C711        C712   1.411       .  A
C711       Br718   1.930       .  S
C712        C713   1.418       .  A
C712       Br717   1.933       .  S
C713        C990   1.420       .  A
C714        C989   1.420   1_554  A
C714       Br715   1.936       .  S
C719        C720   1.420       .  A
C719        C724   1.403       .  A
C719       Br726   1.936       .  S
C720        C997   1.419       .  A
C721        C996   1.419       .  A
C721        C722   1.409       .  A
C721       Br728   1.933       .  S
C722        C999   1.411       .  A
C722       Br727   1.932       .  S
C723        C998   1.411       .  A
C723        C724   1.408       .  A
C724       Br725   1.931       .  S
C729       C1006   1.420       .  A
C729        C734   1.411       .  A
C729       Br736   1.933       .  S
C730       C1005   1.420       .  A
C730        C731   1.421       .  A
C731        C732   1.402       .  A
C731       Br738   1.938       .  S
C732        C733   1.409       .  A
C732       Br737   1.931       .  S
C733       C1010   1.413       .  A
C734       C1009   1.413       .  A
C734       Br735   1.930       .  S
C739       C1016   1.410   1_554  A
C739        C744   1.405       .  A
C739       Br746   1.931       .  S
C740       C1015   1.410       .  A
C740        C741   1.413       .  A
C741        C742   1.410       .  A
C741       Br748   1.931       .  S
C742        C743   1.417       .  A
C742       Br747   1.933       .  S
C743       C1020   1.419       .  A
C744       C1019   1.419   1_554  A
C744       Br745   1.935       .  S
C749        C750   1.407   1_565  A
C749        C754   1.405       .  A
C749       Br756   1.927       .  S
C751        C752   1.409       .  A
C751       Br758   1.930       .  S
C752        C753   1.410       .  A
C752       Br757   1.929       .  S
C754       Br755   1.931       .  S
C759        C764   1.406       .  A
C759       Br766   1.925       .  S
C760        C761   1.411       .  A
C761        C762   1.407       .  A
C761       Br768   1.922       .  S
C762       Br767   1.930       .  S
C763        C764   1.408       .  A
C764       Br765   1.931       .  S
C769        C770   1.417       .  A
C769        C774   1.407       .  A
C769       Br776   1.931       .  S
C771        C772   1.408       .  A
C771       Br778   1.925       .  S
C772       Br777   1.933       .  S
C773        C774   1.412       .  A
C774       Br775   1.935       .  S
C779        C784   1.402       .  A
C779       Br786   1.923       .  S
C780        C781   1.413       .  A
C781        C782   1.411       .  A
C781       Br788   1.924       .  S
C782        C783   1.412       .  A
C782       Br787   1.932       .  S
C784       Br785   1.932       .  S
C789        C790   1.409       .  A
C789        C794   1.405       .  A
C789       Br796   1.933       .  S
C790       C1895   1.410       .  A
C790       C1679   1.496       .  S
C791       C1894   1.410       .  A
C791        C792   1.410       .  A
C791       Br798   1.932       .  S
C792       C1897   1.416       .  A
C792       Br797   1.927       .  S
C793       C1896   1.416       .  A
C793        C794   1.415       .  A
C794       Br795   1.927       .  S
C799        C800   1.413       .  A
C799        C804   1.410       .  A
C799       Br806   1.925       .  S
C800       C1905   1.409       .  A
C801       C1904   1.409   1_455  A
C801        C802   1.405       .  A
C801       Br808   1.918       .  S
C802       C1907   1.409   1_455  A
C802       Br807   1.934       .  S
C803       C1906   1.409       .  A
C803        C804   1.411       .  A
C803       C1680   1.494       .  S
C804       Br805   1.931       .  S
C809        C810   1.409       .  A
C809        C814   1.408       .  A
C809       Br816   1.929       .  S
C810       C1915   1.409       .  A
C810       C1677   1.490       .  S
C811       C1914   1.409   1_455  A
C811        C812   1.406       .  A
C811       Br818   1.930       .  S
C812       C1917   1.409   1_455  A
C812       Br817   1.925       .  S
C813       C1916   1.409       .  A
C813        C814   1.411       .  A
C814       Br815   1.926       .  S
C819       C1924   1.409       .  A
C819        C824   1.409       .  A
C819       Br826   1.928       .  S
C820       C1923   1.409       .  A
C820        C821   1.409       .  A
C820       C1678   1.489       .  S
C821        C822   1.405       .  A
C821       Br828   1.931       .  S
C822        C823   1.408       .  A
C822       Br827   1.924       .  S
C823       C1928   1.412       .  A
C824       C1927   1.412       .  A
C824       Br825   1.930       .  S
N829        C834   1.354       .  A
N829        C833   1.353   1_455  A
N829        H861   1.034       .  S
N830        C837   1.353       .  A
N830        C838   1.353       .  A
N831        C836   1.354       .  A
N831        C835   1.353   1_455  A
N831        H862   1.033       .  S
N832        C839   1.351       .  A
N832        C840   1.351       .  A
C833        C841   1.387       .  A
C833        C849   1.417       .  A
C834        C850   1.418       .  A
C834        C842   1.387   1_455  A
C835        C843   1.388       .  A
C835        C852   1.421       .  A
C836        C851   1.421       .  A
C836        C844   1.387   1_455  A
C837        C849   1.416       .  A
C837        C845   1.386       .  A
C838        C852   1.421       .  A
C838        C846   1.388       .  A
C839        C847   1.386       .  A
C839        C850   1.415       .  A
C840        C848   1.387       .  A
C840        C851   1.417       .  A
C841        C842   1.374       .  A
C841        H853   1.082       .  S
C842        H854   1.082       .  S
C843        C844   1.372       .  A
C843        H855   1.081       .  S
C844        H856   1.082       .  S
C845        C846   1.369       .  A
C845        H857   1.082       .  S
C846        H858   1.082       .  S
C847        C848   1.372       .  A
C847        H859   1.082       .  S
C848        H860   1.082       .  S
C849       C2190   1.490       .  S
C850       C2200   1.489       .  S
C851       C2170   1.496       .  S
C852       C2183   1.494       .  S
O863        C874   1.294       .  A
O864        C875   1.292       .  A
O865        C876   1.289       .  A
O866        C877   1.288       .  A
O866      Eu1423   2.446   1_455  S
O869        C875   1.292       .  A
O869       Eu871   2.466       .  S
O870        C874   1.290       .  A
Eu871      O1418   2.446       .  S
Eu871      O1433   2.360   1_565  S
Eu871      O1976   2.345       .  S
Eu871       O879   2.358       .  S
O872      Eu1975   2.345   1_455  S
O872      Eu1726   2.348   1_455  S
C874       C1099   1.476       .  S
C875       C1089   1.476       .  S
C876       C1056   1.483       .  S
C877       C1046   1.489       .  S
H878        O879   0.965       .  S
H880        O881   0.965       .  S
O881      Eu1423   2.360   1_455  S
O881      Eu1727   2.361   1_455  S
O882        C905   1.291       .  A
O882       Eu898   2.463       .  S
O883        C906   1.294       .  A
O883       Eu899   2.478       .  S
O884        C907   1.294       .  A
O884       Eu900   2.475       .  S
O885        C908   1.286       .  A
O885       Eu901   2.441       .  S
O886        C909   1.294   1_554  A
O887        C910   1.287       .  A
O888        C911   1.291       .  A
O888       Eu902   2.462   1_545  S
O889        C912   1.291       .  A
O889      Eu2006   2.461       .  S
O890        C911   1.292       .  A
O890       Eu900   2.469   1_545  S
O891        C912   1.293       .  A
O891       Eu901   2.472   1_556  S
O892        C907   1.287       .  A
O892       Eu898   2.444       .  S
O893        C910   1.293   1_556  A
O893       Eu899   2.469       .  S
O894        C909   1.287       .  A
O894      Eu2003   2.443   1_455  S
O895        C908   1.293       .  A
O895      Eu2002   2.475   1_454  S
O896        C905   1.293       .  A
O896       Eu902   2.472       .  S
O897        C906   1.290       .  A
Eu898      O1999   2.475   1_556  S
Eu898      O1700   2.348   1_556  S
Eu898      O2020   2.354       .  S
Eu898       O904   2.352       .  S
Eu899      O1998   2.443       .  S
Eu899      O1709   2.361   1_556  S
Eu899      O2007   2.349       .  S
Eu899       O914   2.351       .  S
Eu900       O904   2.355       .  S
Eu901       O916   2.367   1_554  S
Eu902      O1993   2.461       .  S
Eu902      O1455   2.350   1_565  S
Eu902      O2020   2.358       .  S
Eu902       O904   2.349       .  S
O903      Eu2003   2.349   1_455  S
O903      Eu1454   2.350       .  S
C905       C1076   1.484       .  S
C906       C1069   1.489       .  S
C907        C989   1.495       .  S
C908       C1006   1.498       .  S
C909       C1019   1.492       .  S
C910        C996   1.491       .  S
C911       C1026   1.475       .  S
C912       C1036   1.479       .  S
H913        O914   0.967       .  S
H915        O916   0.965       .  S
O916      Eu2002   2.354   1_455  S
O916      Eu2006   2.358       .  S
N917        C922   1.351       .  A
N917        C921   1.353       .  A
N917        H949   1.034       .  S
N918        C925   1.349       .  A
N918        C926   1.349       .  A
N919        C924   1.354       .  A
N919        C923   1.355       .  A
N919        H950   1.034       .  S
N920        C927   1.354       .  A
N920        C928   1.353       .  A
C921        C929   1.387       .  A
C921        C937   1.416       .  A
C922        C938   1.416       .  A
C922        C930   1.388       .  A
C923        C931   1.387       .  A
C923        C940   1.421       .  A
C924        C939   1.422       .  A
C924        C932   1.388       .  A
C925        C937   1.411       .  A
C925        C933   1.386       .  A
C926        C940   1.413       .  A
C926        C934   1.387       .  A
C927        C935   1.385       .  A
C927        C938   1.418       .  A
C928        C936   1.389       .  A
C928        C939   1.422       .  A
C929        C930   1.375       .  A
C929        H941   1.082       .  S
C930        H942   1.082       .  S
C931        C932   1.372       .  A
C931        H943   1.082       .  S
C932        H944   1.080       .  S
C933        C934   1.372       .  A
C933        H945   1.082       .  S
C934        H946   1.082       .  S
C935        C936   1.369       .  A
C935        H947   1.082       .  S
C936        H948   1.082       .  S
C937       C1039   1.486       .  S
C938       C1029   1.491       .  S
C939       C1059   1.496       .  S
C940       C1049   1.495       .  S
N951        C956   1.351   1_556  A
N951        C955   1.351   1_556  A
N951        H983   1.043       .  S
N952        C959   1.348       .  A
N952        C960   1.349       .  A
N953        C958   1.350   1_556  A
N953        C957   1.351   1_556  A
N953        H984   1.042       .  S
N954        C961   1.349       .  A
N954        C962   1.347       .  A
C955        C963   1.389       .  A
C955        C971   1.417       .  A
C956        C972   1.413   1_554  A
C956        C964   1.386       .  A
C957        C965   1.387       .  A
C957        C974   1.414   1_554  A
C958        C973   1.416       .  A
C958        C966   1.388       .  A
C959        C971   1.413   1_556  A
C959        C967   1.387       .  A
C960        C974   1.414       .  A
C960        C968   1.387       .  A
C961        C969   1.387       .  A
C961        C972   1.413       .  A
C962        C970   1.386       .  A
C962        C973   1.411   1_556  A
C963        C964   1.382       .  A
C963        H975   1.082       .  S
C964        H976   1.082       .  S
C965        C966   1.382       .  A
C965        H977   1.082       .  S
C966        H978   1.082       .  S
C967        C968   1.381       .  A
C967        H979   1.082       .  S
C968        H980   1.082       .  S
C969        C970   1.379       .  A
C969        H981   1.082       .  S
C970        H982   1.082       .  S
C971       C1009   1.498       .  S
C972        C986   1.497       .  S
C973        C999   1.493       .  S
C974       C1016   1.498       .  S
C985        C990   1.404       .  A
C985       Br992   1.933       .  S
C986        C987   1.413       .  A
C987        C988   1.411       .  A
C987       Br994   1.930       .  S
C988        C989   1.418       .  A
C988       Br993   1.933       .  S
C990       Br991   1.936       .  S
C995        C996   1.420   1_556  A
C995       C1000   1.403       .  A
C995      Br1002   1.936       .  S
C997        C998   1.409       .  A
C997      Br1004   1.933       .  S
C998      Br1003   1.932       .  S
C999       C1000   1.408   1_554  A
C1000     Br1001   1.931       .  S
C1005      C1010   1.411       .  A
C1005     Br1012   1.933       .  S
C1006      C1007   1.421   1_554  A
C1007      C1008   1.402       .  A
C1007     Br1014   1.938       .  S
C1008      C1009   1.409   1_556  A
C1008     Br1013   1.931       .  S
C1010     Br1011   1.930       .  S
C1015      C1020   1.405       .  A
C1015     Br1022   1.931       .  S
C1016      C1017   1.413       .  A
C1017      C1018   1.410       .  A
C1017     Br1024   1.931       .  S
C1018      C1019   1.417       .  A
C1018     Br1023   1.933       .  S
C1020     Br1021   1.935       .  S
C1025      C1026   1.407   1_565  A
C1025      C1030   1.405       .  A
C1025     Br1032   1.927       .  S
C1027      C1028   1.409       .  A
C1027     Br1034   1.930       .  S
C1028      C1029   1.410       .  A
C1028     Br1033   1.929       .  S
C1030     Br1031   1.931       .  S
C1035      C1040   1.406       .  A
C1035     Br1042   1.925       .  S
C1036      C1037   1.411       .  A
C1037      C1038   1.407       .  A
C1037     Br1044   1.922       .  S
C1038     Br1043   1.930       .  S
C1039      C1040   1.408       .  A
C1040     Br1041   1.931       .  S
C1045      C1046   1.417       .  A
C1045      C1050   1.407       .  A
C1045     Br1052   1.931       .  S
C1047      C1048   1.408       .  A
C1047     Br1054   1.925       .  S
C1048     Br1053   1.933       .  S
C1049      C1050   1.412       .  A
C1050     Br1051   1.935       .  S
C1055      C1060   1.402       .  A
C1055     Br1062   1.923       .  S
C1056      C1057   1.413       .  A
C1057      C1058   1.411       .  A
C1057     Br1064   1.924       .  S
C1058      C1059   1.412       .  A
C1058     Br1063   1.932       .  S
C1060     Br1061   1.932       .  S
C1065      C1066   1.409       .  A
C1065      C1070   1.405       .  A
C1065     Br1072   1.933       .  S
C1066      C2171   1.410       .  A
C1066      C1955   1.496       .  S
C1067      C2170   1.410       .  A
C1067      C1068   1.410       .  A
C1067     Br1074   1.932       .  S
C1068      C2173   1.416       .  A
C1068     Br1073   1.927       .  S
C1069      C2172   1.416       .  A
C1069      C1070   1.415       .  A
C1070     Br1071   1.927       .  S
C1075      C1076   1.413       .  A
C1075      C1080   1.410       .  A
C1075     Br1082   1.925       .  S
C1076      C2181   1.409       .  A
C1077      C2180   1.409   1_455  A
C1077      C1078   1.405       .  A
C1077     Br1084   1.918       .  S
C1078      C2183   1.409   1_455  A
C1078     Br1083   1.934       .  S
C1079      C2182   1.409       .  A
C1079      C1080   1.411       .  A
C1079      C1956   1.494       .  S
C1080     Br1081   1.931       .  S
C1085      C1086   1.409       .  A
C1085      C1090   1.408       .  A
C1085     Br1092   1.929       .  S
C1086      C2191   1.409       .  A
C1086      C1953   1.490       .  S
C1087      C2190   1.409   1_455  A
C1087      C1088   1.406       .  A
C1087     Br1094   1.930       .  S
C1088      C2193   1.409   1_455  A
C1088     Br1093   1.925       .  S
C1089      C2192   1.409       .  A
C1089      C1090   1.411       .  A
C1090     Br1091   1.926       .  S
C1095      C2200   1.409       .  A
C1095      C1100   1.409       .  A
C1095     Br1102   1.928       .  S
C1096      C2199   1.409       .  A
C1096      C1097   1.409       .  A
C1096      C1954   1.489       .  S
C1097      C1098   1.405       .  A
C1097     Br1104   1.931       .  S
C1098      C1099   1.408       .  A
C1098     Br1103   1.924       .  S
C1099      C2204   1.412       .  A
C1100      C2203   1.412       .  A
C1100     Br1101   1.930       .  S
N1105      C1110   1.354       .  A
N1105      C1109   1.353       .  A
N1105      H1137   1.034       .  S
N1106      C1113   1.353       .  A
N1106      C1114   1.353       .  A
N1107      C1112   1.354       .  A
N1107      C1111   1.353       .  A
N1107      H1138   1.033       .  S
N1108      C1115   1.351       .  A
N1108      C1116   1.351       .  A
C1109      C1117   1.387       .  A
C1109      C1125   1.417       .  A
C1110      C1126   1.418       .  A
C1110      C1118   1.387       .  A
C1111      C1119   1.388       .  A
C1111      C1128   1.421       .  A
C1112      C1127   1.421       .  A
C1112      C1120   1.387       .  A
C1113      C1125   1.416       .  A
C1113      C1121   1.385       .  A
C1114      C1128   1.421       .  A
C1114      C1122   1.388       .  A
C1115      C1123   1.386       .  A
C1115      C1126   1.415       .  A
C1116      C1124   1.387       .  A
C1116      C1127   1.417       .  A
C1117      C1118   1.374       .  A
C1117      H1129   1.082       .  S
C1118      H1130   1.082       .  S
C1119      C1120   1.372       .  A
C1119      H1131   1.081       .  S
C1120      H1132   1.082       .  S
C1121      C1122   1.369       .  A
C1121      H1133   1.082       .  S
C1122      H1134   1.082       .  S
C1123      C1124   1.372       .  A
C1123      H1135   1.082       .  S
C1124      H1136   1.082       .  S
O1139      C1150   1.294       .  A
O1139     Eu1451   2.478   1_454  S
O1140      C1151   1.292       .  A
O1140     Eu1450   2.466   1_554  S
O1141      C1152   1.289       .  A
O1141     Eu1699   2.452   1_545  S
O1142      C1153   1.288       .  A
O1143      C1705   1.295       .  A
O1143     Eu1453   2.481       .  S
O1144      C1704   1.293       .  A
O1144     Eu1452   2.473   1_554  S
O1145      C1151   1.292       .  A
O1145     Eu1147   2.466       .  S
O1146      C1150   1.290       .  A
O1146     Eu1699   2.456   1_445  S
Eu1147     O1693   2.452       .  S
Eu1147     O1698   2.456   1_655  S
Eu1147     O1701   2.347       .  S
Eu1147     O1155   2.358       .  S
O1148     Eu1453   2.349       .  S
O1149     Eu1699   2.347   1_545  S
O1149     Eu1451   2.352   1_554  S
O1149     Eu2004   2.350   1_544  S
C1150      C1375   1.476       .  S
C1151      C1365   1.476       .  S
C1152      C1332   1.483       .  S
C1152      O1696   1.293       .  A
C1153      C1322   1.489       .  S
C1153      O1695   1.295       .  A
H1154      O1155   0.965       .  S
O1155     Eu1452   2.357   1_554  S
O1155     Eu1450   2.366   1_554  S
H1156      O1157   0.965       .  S
O1157     Eu2005   2.347   1_545  S
O1158      C1181   1.291       .  A
O1158     Eu1174   2.463       .  S
O1159      C1182   1.294       .  A
O1159     Eu1175   2.478   1_455  S
O1160      C1183   1.294       .  A
O1160     Eu1176   2.475       .  S
O1161      C1184   1.286       .  A
O1161     Eu1177   2.441       .  S
O1162      C1185   1.294       .  A
O1162     Eu1729   2.474   1_545  S
O1163      C1186   1.287       .  A
O1163     Eu1728   2.442   1_545  S
O1164      C1187   1.291       .  A
O1164     Eu1178   2.462   1_655  S
O1165      C1188   1.291       .  A
O1166      C1187   1.292       .  A
O1166     Eu1176   2.469       .  S
O1167      C1188   1.293       .  A
O1167     Eu1177   2.472       .  S
O1168      C1183   1.287       .  A
O1168     Eu1174   2.444       .  S
O1169      C1186   1.293       .  A
O1169     Eu1175   2.469       .  S
O1170      C1185   1.287       .  A
O1171      C1184   1.293       .  A
O1172      C1181   1.293       .  A
O1172     Eu1178   2.472   1_655  S
O1173      C1182   1.290       .  A
O1173     Eu1730   2.456   1_545  S
Eu1174     O1416   2.466       .  S
Eu1174     O1431   2.366       .  S
Eu1174     O1180   2.352       .  S
Eu1175     O1415   2.478   1_655  S
Eu1175     O1425   2.352       .  S
Eu1175     O1190   2.351       .  S
Eu1176     O1420   2.473       .  S
Eu1176     O1715   2.442       .  S
Eu1176     O1977   2.350       .  S
Eu1176     O1431   2.357       .  S
Eu1176     O1742   2.364       .  S
Eu1176     O1180   2.355       .  S
Eu1177     O1419   2.481       .  S
Eu1177     O1714   2.474       .  S
Eu1177     O1424   2.349       .  S
Eu1177     O1985   2.347       .  S
Eu1177     O1731   2.349       .  S
Eu1177     O1192   2.367       .  S
Eu1178     O1725   2.456       .  S
Eu1178     O1742   2.362   1_455  S
Eu1178     O1180   2.349   1_455  S
O1179     Eu1729   2.349   1_545  S
C1181      C1352   1.484       .  S
C1182      C1345   1.489       .  S
C1183      C1265   1.495       .  S
C1184      C1282   1.498       .  S
C1185      C1295   1.492       .  S
C1186      C1272   1.491       .  S
C1187      C1302   1.475       .  S
C1188      C1312   1.479       .  S
H1189      O1190   0.967       .  S
O1190     Eu1728   2.364   1_545  S
O1190     Eu1730   2.362   1_645  S
H1191      O1192   0.965       .  S
N1193      C1198   1.351       .  A
N1193      C1197   1.353       .  A
N1193      H1225   1.034   1_545  S
N1194      C1201   1.349       .  A
N1194      C1202   1.349       .  A
N1195      C1200   1.354       .  A
N1195      C1199   1.355       .  A
N1195      H1226   1.034   1_545  S
N1196      C1203   1.354       .  A
N1196      C1204   1.353       .  A
C1197      C1205   1.387       .  A
C1197      C1213   1.416   1_545  A
C1198      C1214   1.416       .  A
C1198      C1206   1.388       .  A
C1199      C1207   1.387       .  A
C1199      C1216   1.421   1_545  A
C1200      C1215   1.422       .  A
C1200      C1208   1.388       .  A
C1201      C1213   1.411       .  A
C1201      C1209   1.386       .  A
C1202      C1216   1.413       .  A
C1202      C1210   1.387       .  A
C1203      C1211   1.385       .  A
C1203      C1214   1.418       .  A
C1204      C1212   1.389       .  A
C1204      C1215   1.422       .  A
C1205      C1206   1.375       .  A
C1205      H1217   1.082       .  S
C1206      H1218   1.082       .  S
C1207      C1208   1.372       .  A
C1207      H1219   1.082       .  S
C1208      H1220   1.080       .  S
C1209      C1210   1.372       .  A
C1209      H1221   1.082       .  S
C1210      H1222   1.082       .  S
C1211      C1212   1.369       .  A
C1211      H1223   1.082       .  S
C1212      H1224   1.082       .  S
C1213      C1315   1.486       .  S
C1214      C1305   1.491       .  S
C1215      C1335   1.496       .  S
C1216      C1325   1.495       .  S
N1227      C1232   1.351       .  A
N1227      C1231   1.351       .  A
N1227      H1259   1.043       .  S
N1228      C1235   1.348       .  A
N1228      C1236   1.349       .  A
N1229      C1234   1.350       .  A
N1229      C1233   1.351       .  A
N1229      H1260   1.042       .  S
N1230      C1237   1.349       .  A
N1230      C1238   1.347       .  A
C1231      C1239   1.389       .  A
C1231      C1247   1.417       .  A
C1232      C1248   1.413       .  A
C1232      C1240   1.386       .  A
C1233      C1241   1.387       .  A
C1233      C1250   1.414       .  A
C1234      C1249   1.416       .  A
C1234      C1242   1.388       .  A
C1235      C1247   1.413       .  A
C1235      C1243   1.387       .  A
C1236      C1250   1.414       .  A
C1236      C1244   1.387       .  A
C1237      C1245   1.387       .  A
C1237      C1248   1.413       .  A
C1238      C1246   1.386       .  A
C1238      C1249   1.411       .  A
C1239      C1240   1.382       .  A
C1239      H1251   1.082       .  S
C1240      H1252   1.082       .  S
C1241      C1242   1.382       .  A
C1241      H1253   1.082       .  S
C1242      H1254   1.082       .  S
C1243      C1244   1.381       .  A
C1243      H1255   1.082       .  S
C1244      H1256   1.082       .  S
C1245      C1246   1.379       .  A
C1245      H1257   1.082       .  S
C1246      H1258   1.082       .  S
C1247      C1285   1.498       .  S
C1248      C1262   1.497       .  S
C1249      C1275   1.493       .  S
C1250      C1292   1.498       .  S
C1261      C1538   1.409   1_554  A
C1261      C1266   1.404       .  A
C1261     Br1268   1.933       .  S
C1262      C1537   1.409       .  A
C1262      C1263   1.413       .  A
C1263      C1264   1.411       .  A
C1263     Br1270   1.930       .  S
C1264      C1265   1.418       .  A
C1264     Br1269   1.933       .  S
C1265      C1542   1.420       .  A
C1266      C1541   1.420   1_554  A
C1266     Br1267   1.936       .  S
C1271      C1272   1.420       .  A
C1271      C1276   1.403       .  A
C1271     Br1278   1.936       .  S
C1272      C1549   1.419       .  A
C1273      C1548   1.419       .  A
C1273      C1274   1.409       .  A
C1273     Br1280   1.933       .  S
C1274      C1551   1.411       .  A
C1274     Br1279   1.932       .  S
C1275      C1550   1.411       .  A
C1275      C1276   1.408       .  A
C1276     Br1277   1.931       .  S
C1281      C1558   1.420       .  A
C1281      C1286   1.411       .  A
C1281     Br1288   1.933       .  S
C1282      C1557   1.420       .  A
C1282      C1283   1.421       .  A
C1283      C1284   1.402       .  A
C1283     Br1290   1.938       .  S
C1284      C1285   1.409       .  A
C1284     Br1289   1.931       .  S
C1285      C1562   1.413       .  A
C1286      C1561   1.413       .  A
C1286     Br1287   1.930       .  S
C1291      C1568   1.410   1_554  A
C1291      C1296   1.405       .  A
C1291     Br1298   1.931       .  S
C1292      C1567   1.410       .  A
C1292      C1293   1.413       .  A
C1293      C1294   1.410       .  A
C1293     Br1300   1.931       .  S
C1294      C1295   1.417       .  A
C1294     Br1299   1.933       .  S
C1295      C1572   1.419       .  A
C1296      C1571   1.419   1_554  A
C1296     Br1297   1.935       .  S
C1301      C1302   1.407       .  A
C1301      C1306   1.405       .  A
C1301     Br1308   1.927       .  S
C1302      C1855   1.412       .  A
C1303      C1854   1.412       .  A
C1303      C1304   1.409       .  A
C1303     Br1310   1.930       .  S
C1304      C1305   1.410       .  A
C1304     Br1309   1.929       .  S
C1305      C1858   1.411   1_545  A
C1306      C1857   1.411       .  A
C1306     Br1307   1.931       .  S
C1311      C1864   1.410   1_545  A
C1311      C1316   1.406       .  A
C1311     Br1318   1.925       .  S
C1312      C1863   1.410       .  A
C1312      C1313   1.411       .  A
C1313      C1314   1.407       .  A
C1313     Br1320   1.922       .  S
C1314      C1867   1.407       .  A
C1314     Br1319   1.930       .  S
C1315      C1866   1.407       .  A
C1315      C1316   1.408   1_565  A
C1316     Br1317   1.931       .  S
C1321      C1322   1.417   1_545  A
C1321      C1326   1.407       .  A
C1321     Br1328   1.931       .  S
C1322      C1875   1.415       .  A
C1323      C1874   1.415       .  A
C1323      C1324   1.408       .  A
C1323     Br1330   1.925       .  S
C1324      C1877   1.409       .  A
C1324     Br1329   1.933       .  S
C1325      C1876   1.409       .  A
C1325      C1326   1.412   1_565  A
C1326     Br1327   1.935       .  S
C1331      C1884   1.409       .  A
C1331      C1336   1.402       .  A
C1331     Br1338   1.923       .  S
C1332      C1883   1.409   1_545  A
C1332      C1333   1.413       .  A
C1333      C1334   1.411       .  A
C1333     Br1340   1.924       .  S
C1334      C1335   1.412       .  A
C1334     Br1339   1.932       .  S
C1335      C1888   1.411   1_545  A
C1336      C1887   1.411       .  A
C1336     Br1337   1.932       .  S
C1341      C1342   1.409   1_655  A
C1341      C1346   1.405       .  A
C1341     Br1348   1.933       .  S
C1343      C1344   1.410       .  A
C1343     Br1350   1.932       .  S
C1344     Br1349   1.927       .  S
C1345      C1346   1.415   1_455  A
C1346     Br1347   1.927       .  S
C1351      C1352   1.413       .  A
C1351      C1356   1.410       .  A
C1351     Br1358   1.925       .  S
C1353      C1354   1.405       .  A
C1353     Br1360   1.918       .  S
C1354     Br1359   1.934       .  S
C1355      C1356   1.411       .  A
C1356     Br1357   1.931       .  S
C1361      C1362   1.409       .  A
C1361      C1366   1.408       .  A
C1361     Br1368   1.929       .  S
C1363      C1364   1.406       .  A
C1363     Br1370   1.930       .  S
C1364     Br1369   1.925       .  S
C1365      C1366   1.411       .  A
C1366     Br1367   1.926       .  S
C1371      C1376   1.409       .  A
C1371     Br1378   1.928       .  S
C1372      C1373   1.409   1_455  A
C1373      C1374   1.405       .  A
C1373     Br1380   1.931       .  S
C1374      C1375   1.408   1_655  A
C1374     Br1379   1.924       .  S
C1376     Br1377   1.930       .  S
N1381      C1386   1.354       .  A
N1381      C1385   1.353       .  A
N1381      H1413   1.034       .  S
N1382      C1389   1.353       .  A
N1382      C1390   1.353       .  A
N1383      C1388   1.354       .  A
N1383      C1387   1.353       .  A
N1383      H1414   1.033       .  S
N1384      C1391   1.351       .  A
N1384      C1392   1.351       .  A
C1385      C1393   1.387       .  A
C1385      C1401   1.417       .  A
C1386      C1402   1.418       .  A
C1386      C1394   1.387       .  A
C1387      C1395   1.388       .  A
C1387      C1404   1.421       .  A
C1388      C1403   1.421       .  A
C1388      C1396   1.387       .  A
C1389      C1401   1.416       .  A
C1389      C1397   1.385       .  A
C1390      C1404   1.421       .  A
C1390      C1398   1.388       .  A
C1391      C1399   1.386       .  A
C1391      C1402   1.415       .  A
C1392      C1400   1.387       .  A
C1392      C1403   1.417       .  A
C1393      C1394   1.374       .  A
C1393      H1405   1.082       .  S
C1394      H1406   1.082       .  S
C1395      C1396   1.372       .  A
C1395      H1407   1.081       .  S
C1396      H1408   1.082       .  S
C1397      C1398   1.369       .  A
C1397      H1409   1.082       .  S
C1398      H1410   1.082       .  S
C1399      C1400   1.372       .  A
C1399      H1411   1.082       .  S
C1400      H1412   1.082       .  S
O1415      C1426   1.294       .  A
O1416      C1427   1.292       .  A
O1417      C1428   1.289       .  A
O1417     Eu1975   2.452   1_545  S
O1418      C1429   1.288       .  A
O1419      C1981   1.295       .  A
O1420      C1980   1.293       .  A
O1421      C1427   1.292       .  A
O1421     Eu1423   2.466       .  S
O1422      C1426   1.290       .  A
O1422     Eu1975   2.456   1_445  S
Eu1423     O1969   2.452       .  S
Eu1423     O1974   2.456   1_655  S
Eu1423     O1977   2.347       .  S
Eu1423     O1431   2.358       .  S
O1425     Eu1975   2.347   1_545  S
O1425     Eu1728   2.350   1_545  S
C1426      C1651   1.476       .  S
C1427      C1641   1.476       .  S
C1428      C1608   1.483       .  S
C1428      O1972   1.293       .  A
C1429      C1598   1.489       .  S
C1429      O1971   1.295       .  A
H1430      O1431   0.965       .  S
H1432      O1433   0.965       .  S
O1433     Eu1729   2.347   1_545  S
O1434      C1457   1.291       .  A
O1434     Eu1450   2.463       .  S
O1435      C1458   1.294       .  A
O1435     Eu1451   2.478   1_455  S
O1436      C1459   1.294       .  A
O1436     Eu1452   2.475       .  S
O1437      C1460   1.286       .  A
O1437     Eu1453   2.441       .  S
O1438      C1461   1.294   1_554  A
O1438     Eu2005   2.474   1_545  S
O1439      C1462   1.287       .  A
O1439     Eu2004   2.442   1_544  S
O1440      C1463   1.291       .  A
O1440     Eu1454   2.462   1_655  S
O1441      C1464   1.291       .  A
O1442      C1463   1.292       .  A
O1442     Eu1452   2.469       .  S
O1443      C1464   1.293       .  A
O1443     Eu1453   2.472   1_556  S
O1444      C1459   1.287       .  A
O1444     Eu1450   2.444       .  S
O1445      C1462   1.293   1_556  A
O1445     Eu1451   2.469       .  S
O1446      C1461   1.287       .  A
O1447      C1460   1.293       .  A
O1448      C1457   1.293       .  A
O1448     Eu1454   2.472   1_655  S
O1449      C1458   1.290       .  A
O1449     Eu2006   2.456   1_545  S
Eu1450     O1456   2.352       .  S
Eu1451     O1466   2.351       .  S
Eu1452     O1991   2.442   1_556  S
Eu1452     O1701   2.350   1_556  S
Eu1452     O2018   2.364       .  S
Eu1452     O1456   2.355       .  S
Eu1453     O1990   2.474       .  S
Eu1453     O1709   2.347       .  S
Eu1453     O2007   2.349   1_554  S
Eu1453     O1468   2.367   1_554  S
Eu1454     O2001   2.456       .  S
Eu1454     O2018   2.362   1_455  S
Eu1454     O1456   2.349   1_455  S
O1455     Eu2005   2.349   1_546  S
C1457      C1628   1.484       .  S
C1458      C1621   1.489       .  S
C1459      C1541   1.495       .  S
C1460      C1558   1.498       .  S
C1461      C1571   1.492       .  S
C1462      C1548   1.491       .  S
C1463      C1578   1.475       .  S
C1464      C1588   1.479       .  S
H1465      O1466   0.967       .  S
O1466     Eu2004   2.364   1_545  S
O1466     Eu2006   2.362   1_645  S
H1467      O1468   0.965       .  S
N1469      C1474   1.351       .  A
N1469      C1473   1.353       .  A
N1469      H1501   1.034   1_545  S
N1470      C1477   1.349       .  A
N1470      C1478   1.349       .  A
N1471      C1476   1.354       .  A
N1471      C1475   1.355       .  A
N1471      H1502   1.034   1_545  S
N1472      C1479   1.354       .  A
N1472      C1480   1.353       .  A
C1473      C1481   1.387       .  A
C1473      C1489   1.416   1_545  A
C1474      C1490   1.416       .  A
C1474      C1482   1.388       .  A
C1475      C1483   1.387       .  A
C1475      C1492   1.421   1_545  A
C1476      C1491   1.422       .  A
C1476      C1484   1.388       .  A
C1477      C1489   1.411       .  A
C1477      C1485   1.386       .  A
C1478      C1492   1.413       .  A
C1478      C1486   1.387       .  A
C1479      C1487   1.385       .  A
C1479      C1490   1.418       .  A
C1480      C1488   1.389       .  A
C1480      C1491   1.422       .  A
C1481      C1482   1.375       .  A
C1481      H1493   1.082       .  S
C1482      H1494   1.082       .  S
C1483      C1484   1.372       .  A
C1483      H1495   1.082       .  S
C1484      H1496   1.080       .  S
C1485      C1486   1.372       .  A
C1485      H1497   1.082       .  S
C1486      H1498   1.082       .  S
C1487      C1488   1.369       .  A
C1487      H1499   1.082       .  S
C1488      H1500   1.082       .  S
C1489      C1591   1.486       .  S
C1490      C1581   1.491       .  S
C1491      C1611   1.496       .  S
C1492      C1601   1.495       .  S
N1503      C1508   1.351   1_556  A
N1503      C1507   1.351   1_556  A
N1503      H1535   1.043       .  S
N1504      C1511   1.348       .  A
N1504      C1512   1.349       .  A
N1505      C1510   1.350   1_556  A
N1505      C1509   1.351   1_556  A
N1505      H1536   1.042       .  S
N1506      C1513   1.349       .  A
N1506      C1514   1.347       .  A
C1507      C1515   1.389       .  A
C1507      C1523   1.417       .  A
C1508      C1524   1.413   1_554  A
C1508      C1516   1.386       .  A
C1509      C1517   1.387       .  A
C1509      C1526   1.414   1_554  A
C1510      C1525   1.416       .  A
C1510      C1518   1.388       .  A
C1511      C1523   1.413   1_556  A
C1511      C1519   1.387       .  A
C1512      C1526   1.414       .  A
C1512      C1520   1.387       .  A
C1513      C1521   1.387       .  A
C1513      C1524   1.413       .  A
C1514      C1522   1.386       .  A
C1514      C1525   1.411   1_556  A
C1515      C1516   1.382       .  A
C1515      H1527   1.082       .  S
C1516      H1528   1.082       .  S
C1517      C1518   1.382       .  A
C1517      H1529   1.082       .  S
C1518      H1530   1.082       .  S
C1519      C1520   1.381       .  A
C1519      H1531   1.082       .  S
C1520      H1532   1.082       .  S
C1521      C1522   1.379       .  A
C1521      H1533   1.082       .  S
C1522      H1534   1.082       .  S
C1523      C1561   1.498       .  S
C1524      C1538   1.497       .  S
C1525      C1551   1.493       .  S
C1526      C1568   1.498       .  S
C1537      C1542   1.404       .  A
C1537     Br1544   1.933       .  S
C1538      C1539   1.413       .  A
C1539      C1540   1.411       .  A
C1539     Br1546   1.930       .  S
C1540      C1541   1.418       .  A
C1540     Br1545   1.933       .  S
C1542     Br1543   1.936       .  S
C1547      C1548   1.420   1_556  A
C1547      C1552   1.403       .  A
C1547     Br1554   1.936       .  S
C1549      C1550   1.409       .  A
C1549     Br1556   1.933       .  S
C1550     Br1555   1.932       .  S
C1551      C1552   1.408   1_554  A
C1552     Br1553   1.931       .  S
C1557      C1562   1.411       .  A
C1557     Br1564   1.933       .  S
C1558      C1559   1.421   1_554  A
C1559      C1560   1.402       .  A
C1559     Br1566   1.938       .  S
C1560      C1561   1.409   1_556  A
C1560     Br1565   1.931       .  S
C1562     Br1563   1.930       .  S
C1567      C1572   1.405       .  A
C1567     Br1574   1.931       .  S
C1568      C1569   1.413       .  A
C1569      C1570   1.410       .  A
C1569     Br1576   1.931       .  S
C1570      C1571   1.417       .  A
C1570     Br1575   1.933       .  S
C1572     Br1573   1.935       .  S
C1577      C1578   1.407       .  A
C1577      C1582   1.405       .  A
C1577     Br1584   1.927       .  S
C1578      C2131   1.412       .  A
C1579      C2130   1.412       .  A
C1579      C1580   1.409       .  A
C1579     Br1586   1.930       .  S
C1580      C1581   1.410       .  A
C1580     Br1585   1.929       .  S
C1581      C2134   1.411   1_545  A
C1582      C2133   1.411       .  A
C1582     Br1583   1.931       .  S
C1587      C2140   1.410   1_545  A
C1587      C1592   1.406       .  A
C1587     Br1594   1.925       .  S
C1588      C2139   1.410       .  A
C1588      C1589   1.411       .  A
C1589      C1590   1.407       .  A
C1589     Br1596   1.922       .  S
C1590      C2143   1.407       .  A
C1590     Br1595   1.930       .  S
C1591      C2142   1.407       .  A
C1591      C1592   1.408   1_565  A
C1592     Br1593   1.931       .  S
C1597      C1598   1.417   1_545  A
C1597      C1602   1.407       .  A
C1597     Br1604   1.931       .  S
C1598      C2151   1.415       .  A
C1599      C2150   1.415       .  A
C1599      C1600   1.408       .  A
C1599     Br1606   1.925       .  S
C1600      C2153   1.409       .  A
C1600     Br1605   1.933       .  S
C1601      C2152   1.409       .  A
C1601      C1602   1.412   1_565  A
C1602     Br1603   1.935       .  S
C1607      C2160   1.409       .  A
C1607      C1612   1.402       .  A
C1607     Br1614   1.923       .  S
C1608      C2159   1.409   1_545  A
C1608      C1609   1.413       .  A
C1609      C1610   1.411       .  A
C1609     Br1616   1.924       .  S
C1610      C1611   1.412       .  A
C1610     Br1615   1.932       .  S
C1611      C2164   1.411   1_545  A
C1612      C2163   1.411       .  A
C1612     Br1613   1.932       .  S
C1617      C1618   1.409   1_655  A
C1617      C1622   1.405       .  A
C1617     Br1624   1.933       .  S
C1619      C1620   1.410       .  A
C1619     Br1626   1.932       .  S
C1620     Br1625   1.927       .  S
C1621      C1622   1.415   1_455  A
C1622     Br1623   1.927       .  S
C1627      C1628   1.413       .  A
C1627      C1632   1.410       .  A
C1627     Br1634   1.925       .  S
C1629      C1630   1.405       .  A
C1629     Br1636   1.918       .  S
C1630     Br1635   1.934       .  S
C1631      C1632   1.411       .  A
C1632     Br1633   1.931       .  S
C1637      C1638   1.409       .  A
C1637      C1642   1.408       .  A
C1637     Br1644   1.929       .  S
C1639      C1640   1.406       .  A
C1639     Br1646   1.930       .  S
C1640     Br1645   1.925       .  S
C1641      C1642   1.411       .  A
C1642     Br1643   1.926       .  S
C1647      C1652   1.409       .  A
C1647     Br1654   1.928       .  S
C1648      C1649   1.409   1_455  A
C1649      C1650   1.405       .  A
C1649     Br1656   1.931       .  S
C1650      C1651   1.408   1_655  A
C1650     Br1655   1.924       .  S
C1652     Br1653   1.930       .  S
N1657      C1662   1.354       .  A
N1657      C1661   1.353       .  A
N1657      H1689   1.034       .  S
N1658      C1665   1.353       .  A
N1658      C1666   1.353       .  A
N1659      C1664   1.354       .  A
N1659      C1663   1.353       .  A
N1659      H1690   1.033       .  S
N1660      C1667   1.351       .  A
N1660      C1668   1.351       .  A
C1661      C1669   1.387       .  A
C1661      C1677   1.417       .  A
C1662      C1678   1.418       .  A
C1662      C1670   1.387       .  A
C1663      C1671   1.388       .  A
C1663      C1680   1.421       .  A
C1664      C1679   1.421       .  A
C1664      C1672   1.387       .  A
C1665      C1677   1.416       .  A
C1665      C1673   1.385       .  A
C1666      C1680   1.421       .  A
C1666      C1674   1.388       .  A
C1667      C1675   1.386       .  A
C1667      C1678   1.415       .  A
C1668      C1676   1.387       .  A
C1668      C1679   1.417       .  A
C1669      C1670   1.374       .  A
C1669      H1681   1.082       .  S
C1670      H1682   1.082       .  S
C1671      C1672   1.372       .  A
C1671      H1683   1.081       .  S
C1672      H1684   1.082       .  S
C1673      C1674   1.369       .  A
C1673      H1685   1.082       .  S
C1674      H1686   1.082       .  S
C1675      C1676   1.372       .  A
C1675      H1687   1.082       .  S
C1676      H1688   1.082       .  S
O1691      C1702   1.294       .  A
O1691     Eu2003   2.478   1_454  S
O1692      C1703   1.292       .  A
O1692     Eu2002   2.466   1_554  S
O1693      C1704   1.289       .  A
O1694      C1705   1.288       .  A
O1695     Eu2005   2.481       .  S
O1696     Eu2004   2.473   1_544  S
O1697      C1703   1.292       .  A
O1697     Eu1699   2.466       .  S
O1698      C1702   1.290       .  A
Eu1699     O1707   2.358       .  S
O1700     Eu2005   2.349       .  S
O1701     Eu2003   2.352   1_554  S
C1702      C1927   1.476       .  S
C1703      C1917   1.476       .  S
C1704      C1884   1.483       .  S
C1705      C1874   1.489       .  S
H1706      O1707   0.965       .  S
O1707     Eu2004   2.357   1_554  S
O1707     Eu2002   2.366   1_554  S
H1708      O1709   0.965       .  S
O1710      C1733   1.291       .  A
O1710     Eu1726   2.463       .  S
O1711      C1734   1.294       .  A
O1711     Eu1727   2.478   1_455  S
O1712      C1735   1.294       .  A
O1712     Eu1728   2.475       .  S
O1713      C1736   1.286       .  A
O1713     Eu1729   2.441       .  S
O1714      C1737   1.294       .  A
O1715      C1738   1.287       .  A
O1716      C1739   1.291       .  A
O1716     Eu1730   2.462   1_645  S
O1717      C1740   1.291       .  A
O1718      C1739   1.292       .  A
O1718     Eu1728   2.469   1_545  S
O1719      C1740   1.293       .  A
O1719     Eu1729   2.472       .  S
O1720      C1735   1.287       .  A
O1720     Eu1726   2.444       .  S
O1721      C1738   1.293       .  A
O1721     Eu1727   2.469       .  S
O1722      C1737   1.287       .  A
O1723      C1736   1.293       .  A
O1724      C1733   1.293       .  A
O1724     Eu1730   2.472   1_655  S
O1725      C1734   1.290       .  A
Eu1726     O1968   2.466       .  S
Eu1726     O1983   2.366       .  S
Eu1726     O1732   2.352       .  S
Eu1727     O1967   2.478   1_655  S
Eu1727     O1977   2.352       .  S
Eu1727     O1742   2.351       .  S
Eu1728     O1972   2.473   1_565  S
Eu1728     O1983   2.357       .  S
Eu1728     O1732   2.355       .  S
Eu1729     O1971   2.481       .  S
Eu1729     O1976   2.349       .  S
Eu1729     O1744   2.367       .  S
Eu1730     O1732   2.349   1_455  S
C1733      C1904   1.484       .  S
C1734      C1897   1.489       .  S
C1735      C1817   1.495       .  S
C1736      C1834   1.498       .  S
C1737      C1847   1.492       .  S
C1738      C1824   1.491       .  S
C1739      C1854   1.475       .  S
C1740      C1864   1.479       .  S
H1741      O1742   0.967       .  S
H1743      O1744   0.965       .  S
N1745      C1750   1.351       .  A
N1745      C1749   1.353       .  A
N1745      H1777   1.034       .  S
N1746      C1753   1.349       .  A
N1746      C1754   1.349       .  A
N1747      C1752   1.354       .  A
N1747      C1751   1.355       .  A
N1747      H1778   1.034       .  S
N1748      C1755   1.354       .  A
N1748      C1756   1.353       .  A
C1749      C1757   1.387       .  A
C1749      C1765   1.416       .  A
C1750      C1766   1.416       .  A
C1750      C1758   1.388       .  A
C1751      C1759   1.387       .  A
C1751      C1768   1.421       .  A
C1752      C1767   1.422       .  A
C1752      C1760   1.388       .  A
C1753      C1765   1.411       .  A
C1753      C1761   1.386       .  A
C1754      C1768   1.413       .  A
C1754      C1762   1.387       .  A
C1755      C1763   1.385       .  A
C1755      C1766   1.418       .  A
C1756      C1764   1.389       .  A
C1756      C1767   1.422       .  A
C1757      C1758   1.375       .  A
C1757      H1769   1.082       .  S
C1758      H1770   1.082       .  S
C1759      C1760   1.372       .  A
C1759      H1771   1.082       .  S
C1760      H1772   1.080       .  S
C1761      C1762   1.372       .  A
C1761      H1773   1.082       .  S
C1762      H1774   1.082       .  S
C1763      C1764   1.369       .  A
C1763      H1775   1.082       .  S
C1764      H1776   1.082       .  S
C1765      C1867   1.486       .  S
C1766      C1857   1.491       .  S
C1767      C1887   1.496       .  S
C1768      C1877   1.495       .  S
N1779      C1784   1.351       .  A
N1779      C1783   1.351       .  A
N1779      H1811   1.043       .  S
N1780      C1787   1.348       .  A
N1780      C1788   1.349       .  A
N1781      C1786   1.350       .  A
N1781      C1785   1.351       .  A
N1781      H1812   1.042       .  S
N1782      C1789   1.349       .  A
N1782      C1790   1.347       .  A
C1783      C1791   1.389       .  A
C1783      C1799   1.417       .  A
C1784      C1800   1.413       .  A
C1784      C1792   1.386       .  A
C1785      C1793   1.387       .  A
C1785      C1802   1.414       .  A
C1786      C1801   1.416       .  A
C1786      C1794   1.388       .  A
C1787      C1799   1.413       .  A
C1787      C1795   1.387       .  A
C1788      C1802   1.414       .  A
C1788      C1796   1.387       .  A
C1789      C1797   1.387       .  A
C1789      C1800   1.413       .  A
C1790      C1798   1.386       .  A
C1790      C1801   1.411       .  A
C1791      C1792   1.382       .  A
C1791      H1803   1.082       .  S
C1792      H1804   1.082       .  S
C1793      C1794   1.382       .  A
C1793      H1805   1.082       .  S
C1794      H1806   1.082       .  S
C1795      C1796   1.381       .  A
C1795      H1807   1.082       .  S
C1796      H1808   1.082       .  S
C1797      C1798   1.379       .  A
C1797      H1809   1.082       .  S
C1798      H1810   1.082       .  S
C1799      C1837   1.498       .  S
C1800      C1814   1.497       .  S
C1801      C1827   1.493       .  S
C1802      C1844   1.498       .  S
C1813      C2090   1.409   1_554  A
C1813      C1818   1.404       .  A
C1813     Br1820   1.933       .  S
C1814      C2089   1.409       .  A
C1814      C1815   1.413       .  A
C1815      C1816   1.411       .  A
C1815     Br1822   1.930       .  S
C1816      C1817   1.418       .  A
C1816     Br1821   1.933       .  S
C1817      C2094   1.420       .  A
C1818      C2093   1.420   1_554  A
C1818     Br1819   1.936       .  S
C1823      C1824   1.420       .  A
C1823      C1828   1.403       .  A
C1823     Br1830   1.936       .  S
C1824      C2101   1.419       .  A
C1825      C2100   1.419       .  A
C1825      C1826   1.409       .  A
C1825     Br1832   1.933       .  S
C1826      C2103   1.411       .  A
C1826     Br1831   1.932       .  S
C1827      C2102   1.411       .  A
C1827      C1828   1.408       .  A
C1828     Br1829   1.931       .  S
C1833      C2110   1.420       .  A
C1833      C1838   1.411       .  A
C1833     Br1840   1.933       .  S
C1834      C2109   1.420       .  A
C1834      C1835   1.421       .  A
C1835      C1836   1.402       .  A
C1835     Br1842   1.938       .  S
C1836      C1837   1.409       .  A
C1836     Br1841   1.931       .  S
C1837      C2114   1.413       .  A
C1838      C2113   1.413       .  A
C1838     Br1839   1.930       .  S
C1843      C2120   1.410   1_554  A
C1843      C1848   1.405       .  A
C1843     Br1850   1.931       .  S
C1844      C2119   1.410       .  A
C1844      C1845   1.413       .  A
C1845      C1846   1.410       .  A
C1845     Br1852   1.931       .  S
C1846      C1847   1.417       .  A
C1846     Br1851   1.933       .  S
C1847      C2124   1.419       .  A
C1848      C2123   1.419   1_554  A
C1848     Br1849   1.935       .  S
C1853      C1854   1.407   1_565  A
C1853      C1858   1.405       .  A
C1853     Br1860   1.927       .  S
C1855      C1856   1.409       .  A
C1855     Br1862   1.930       .  S
C1856      C1857   1.410       .  A
C1856     Br1861   1.929       .  S
C1858     Br1859   1.931       .  S
C1863      C1868   1.406       .  A
C1863     Br1870   1.925       .  S
C1864      C1865   1.411       .  A
C1865      C1866   1.407       .  A
C1865     Br1872   1.922       .  S
C1866     Br1871   1.930       .  S
C1867      C1868   1.408       .  A
C1868     Br1869   1.931       .  S
C1873      C1874   1.417       .  A
C1873      C1878   1.407       .  A
C1873     Br1880   1.931       .  S
C1875      C1876   1.408       .  A
C1875     Br1882   1.925       .  S
C1876     Br1881   1.933       .  S
C1877      C1878   1.412       .  A
C1878     Br1879   1.935       .  S
C1883      C1888   1.402       .  A
C1883     Br1890   1.923       .  S
C1884      C1885   1.413       .  A
C1885      C1886   1.411       .  A
C1885     Br1892   1.924       .  S
C1886      C1887   1.412       .  A
C1886     Br1891   1.932       .  S
C1888     Br1889   1.932       .  S
C1893      C1894   1.409   1_655  A
C1893      C1898   1.405       .  A
C1893     Br1900   1.933       .  S
C1895      C1896   1.410       .  A
C1895     Br1902   1.932       .  S
C1896     Br1901   1.927       .  S
C1897      C1898   1.415   1_455  A
C1898     Br1899   1.927       .  S
C1903      C1904   1.413       .  A
C1903      C1908   1.410       .  A
C1903     Br1910   1.925       .  S
C1905      C1906   1.405       .  A
C1905     Br1912   1.918       .  S
C1906     Br1911   1.934       .  S
C1907      C1908   1.411       .  A
C1908     Br1909   1.931       .  S
C1913      C1914   1.409       .  A
C1913      C1918   1.408       .  A
C1913     Br1920   1.929       .  S
C1915      C1916   1.406       .  A
C1915     Br1922   1.930       .  S
C1916     Br1921   1.925       .  S
C1917      C1918   1.411       .  A
C1918     Br1919   1.926       .  S
C1923      C1928   1.409       .  A
C1923     Br1930   1.928       .  S
C1924      C1925   1.409   1_455  A
C1925      C1926   1.405       .  A
C1925     Br1932   1.931       .  S
C1926      C1927   1.408   1_655  A
C1926     Br1931   1.924       .  S
C1928     Br1929   1.930       .  S
N1933      C1938   1.354       .  A
N1933      C1937   1.353       .  A
N1933      H1965   1.034       .  S
N1934      C1941   1.353       .  A
N1934      C1942   1.353       .  A
N1935      C1940   1.354       .  A
N1935      C1939   1.353       .  A
N1935      H1966   1.033       .  S
N1936      C1943   1.351       .  A
N1936      C1944   1.351       .  A
C1937      C1945   1.387       .  A
C1937      C1953   1.417       .  A
C1938      C1954   1.418       .  A
C1938      C1946   1.387       .  A
C1939      C1947   1.388       .  A
C1939      C1956   1.421       .  A
C1940      C1955   1.421       .  A
C1940      C1948   1.387       .  A
C1941      C1953   1.416       .  A
C1941      C1949   1.386       .  A
C1942      C1956   1.421       .  A
C1942      C1950   1.388       .  A
C1943      C1951   1.386       .  A
C1943      C1954   1.415       .  A
C1944      C1952   1.387       .  A
C1944      C1955   1.417       .  A
C1945      C1946   1.374       .  A
C1945      H1957   1.082       .  S
C1946      H1958   1.082       .  S
C1947      C1948   1.372       .  A
C1947      H1959   1.081       .  S
C1948      H1960   1.082       .  S
C1949      C1950   1.369       .  A
C1949      H1961   1.082       .  S
C1950      H1962   1.082       .  S
C1951      C1952   1.372       .  A
C1951      H1963   1.082       .  S
C1952      H1964   1.082       .  S
O1967      C1978   1.294       .  A
O1968      C1979   1.292       .  A
O1969      C1980   1.289       .  A
O1970      C1981   1.288       .  A
O1973      C1979   1.292       .  A
O1973     Eu1975   2.466       .  S
O1974      C1978   1.290       .  A
Eu1975     O1983   2.358       .  S
C1978      C2203   1.476       .  S
C1979      C2193   1.476       .  S
C1980      C2160   1.483       .  S
C1981      C2150   1.489       .  S
H1982      O1983   0.965       .  S
H1984      O1985   0.965       .  S
O1986      C2009   1.291       .  A
O1986     Eu2002   2.463       .  S
O1987      C2010   1.294       .  A
O1987     Eu2003   2.478   1_455  S
O1988      C2011   1.294       .  A
O1988     Eu2004   2.475       .  S
O1989      C2012   1.286       .  A
O1989     Eu2005   2.441       .  S
O1990      C2013   1.294   1_554  A
O1991      C2014   1.287       .  A
O1992      C2015   1.291       .  A
O1992     Eu2006   2.462   1_645  S
O1993      C2016   1.291       .  A
O1994      C2015   1.292       .  A
O1994     Eu2004   2.469   1_545  S
O1995      C2016   1.293       .  A
O1995     Eu2005   2.472   1_556  S
O1996      C2011   1.287       .  A
O1996     Eu2002   2.444       .  S
O1997      C2014   1.293   1_556  A
O1997     Eu2003   2.469       .  S
O1998      C2013   1.287       .  A
O1999      C2012   1.293       .  A
O2000      C2009   1.293       .  A
O2000     Eu2006   2.472   1_655  S
O2001      C2010   1.290       .  A
Eu2002     O2008   2.352       .  S
Eu2003     O2018   2.351       .  S
Eu2004     O2008   2.355       .  S
Eu2005     O2020   2.367   1_554  S
Eu2006     O2008   2.349   1_455  S
C2009      C2180   1.484       .  S
C2010      C2173   1.489       .  S
C2011      C2093   1.495       .  S
C2012      C2110   1.498       .  S
C2013      C2123   1.492       .  S
C2014      C2100   1.491       .  S
C2015      C2130   1.475       .  S
C2016      C2140   1.479       .  S
H2017      O2018   0.967       .  S
H2019      O2020   0.965       .  S
N2021      C2026   1.351       .  A
N2021      C2025   1.353       .  A
N2021      H2053   1.034       .  S
N2022      C2029   1.349       .  A
N2022      C2030   1.349       .  A
N2023      C2028   1.354       .  A
N2023      C2027   1.355       .  A
N2023      H2054   1.034       .  S
N2024      C2031   1.354       .  A
N2024      C2032   1.353       .  A
C2025      C2033   1.387       .  A
C2025      C2041   1.416       .  A
C2026      C2042   1.416       .  A
C2026      C2034   1.388       .  A
C2027      C2035   1.387       .  A
C2027      C2044   1.421       .  A
C2028      C2043   1.422       .  A
C2028      C2036   1.388       .  A
C2029      C2041   1.411       .  A
C2029      C2037   1.386       .  A
C2030      C2044   1.413       .  A
C2030      C2038   1.387       .  A
C2031      C2039   1.385       .  A
C2031      C2042   1.418       .  A
C2032      C2040   1.389       .  A
C2032      C2043   1.422       .  A
C2033      C2034   1.375       .  A
C2033      H2045   1.082       .  S
C2034      H2046   1.082       .  S
C2035      C2036   1.372       .  A
C2035      H2047   1.082       .  S
C2036      H2048   1.080       .  S
C2037      C2038   1.372       .  A
C2037      H2049   1.082       .  S
C2038      H2050   1.082       .  S
C2039      C2040   1.369       .  A
C2039      H2051   1.082       .  S
C2040      H2052   1.082       .  S
C2041      C2143   1.486       .  S
C2042      C2133   1.491       .  S
C2043      C2163   1.496       .  S
C2044      C2153   1.495       .  S
N2055      C2060   1.351   1_556  A
N2055      C2059   1.351   1_556  A
N2055      H2087   1.043       .  S
N2056      C2063   1.348       .  A
N2056      C2064   1.349       .  A
N2057      C2062   1.350   1_556  A
N2057      C2061   1.351   1_556  A
N2057      H2088   1.042       .  S
N2058      C2065   1.349       .  A
N2058      C2066   1.347       .  A
C2059      C2067   1.389       .  A
C2059      C2075   1.417       .  A
C2060      C2076   1.413   1_554  A
C2060      C2068   1.386       .  A
C2061      C2069   1.387       .  A
C2061      C2078   1.414   1_554  A
C2062      C2077   1.416       .  A
C2062      C2070   1.388       .  A
C2063      C2075   1.413   1_556  A
C2063      C2071   1.387       .  A
C2064      C2078   1.414       .  A
C2064      C2072   1.387       .  A
C2065      C2073   1.387       .  A
C2065      C2076   1.413       .  A
C2066      C2074   1.386       .  A
C2066      C2077   1.411   1_556  A
C2067      C2068   1.382       .  A
C2067      H2079   1.082       .  S
C2068      H2080   1.082       .  S
C2069      C2070   1.382       .  A
C2069      H2081   1.082       .  S
C2070      H2082   1.082       .  S
C2071      C2072   1.381       .  A
C2071      H2083   1.082       .  S
C2072      H2084   1.082       .  S
C2073      C2074   1.379       .  A
C2073      H2085   1.082       .  S
C2074      H2086   1.082       .  S
C2075      C2113   1.498       .  S
C2076      C2090   1.497       .  S
C2077      C2103   1.493       .  S
C2078      C2120   1.498       .  S
C2089      C2094   1.404       .  A
C2089     Br2096   1.933       .  S
C2090      C2091   1.413       .  A
C2091      C2092   1.411       .  A
C2091     Br2098   1.930       .  S
C2092      C2093   1.418       .  A
C2092     Br2097   1.933       .  S
C2094     Br2095   1.936       .  S
C2099      C2100   1.420   1_556  A
C2099      C2104   1.403       .  A
C2099     Br2106   1.936       .  S
C2101      C2102   1.409       .  A
C2101     Br2108   1.933       .  S
C2102     Br2107   1.932       .  S
C2103      C2104   1.408   1_554  A
C2104     Br2105   1.931       .  S
C2109      C2114   1.411       .  A
C2109     Br2116   1.933       .  S
C2110      C2111   1.421   1_554  A
C2111      C2112   1.402       .  A
C2111     Br2118   1.938       .  S
C2112      C2113   1.409   1_556  A
C2112     Br2117   1.931       .  S
C2114     Br2115   1.930       .  S
C2119      C2124   1.405       .  A
C2119     Br2126   1.931       .  S
C2120      C2121   1.413       .  A
C2121      C2122   1.410       .  A
C2121     Br2128   1.931       .  S
C2122      C2123   1.417       .  A
C2122     Br2127   1.933       .  S
C2124     Br2125   1.935       .  S
C2129      C2130   1.407   1_565  A
C2129      C2134   1.405       .  A
C2129     Br2136   1.927       .  S
C2131      C2132   1.409       .  A
C2131     Br2138   1.930       .  S
C2132      C2133   1.410       .  A
C2132     Br2137   1.929       .  S
C2134     Br2135   1.931       .  S
C2139      C2144   1.406       .  A
C2139     Br2146   1.925       .  S
C2140      C2141   1.411       .  A
C2141      C2142   1.407       .  A
C2141     Br2148   1.922       .  S
C2142     Br2147   1.930       .  S
C2143      C2144   1.408       .  A
C2144     Br2145   1.931       .  S
C2149      C2150   1.417       .  A
C2149      C2154   1.407       .  A
C2149     Br2156   1.931       .  S
C2151      C2152   1.408       .  A
C2151     Br2158   1.925       .  S
C2152     Br2157   1.933       .  S
C2153      C2154   1.412       .  A
C2154     Br2155   1.935       .  S
C2159      C2164   1.402       .  A
C2159     Br2166   1.923       .  S
C2160      C2161   1.413       .  A
C2161      C2162   1.411       .  A
C2161     Br2168   1.924       .  S
C2162      C2163   1.412       .  A
C2162     Br2167   1.932       .  S
C2164     Br2165   1.932       .  S
C2169      C2170   1.409   1_655  A
C2169      C2174   1.405       .  A
C2169     Br2176   1.933       .  S
C2171      C2172   1.410       .  A
C2171     Br2178   1.932       .  S
C2172     Br2177   1.927       .  S
C2173      C2174   1.415   1_455  A
C2174     Br2175   1.927       .  S
C2179      C2180   1.413       .  A
C2179      C2184   1.410       .  A
C2179     Br2186   1.925       .  S
C2181      C2182   1.405       .  A
C2181     Br2188   1.918       .  S
C2182     Br2187   1.934       .  S
C2183      C2184   1.411       .  A
C2184     Br2185   1.931       .  S
C2189      C2190   1.409       .  A
C2189      C2194   1.408       .  A
C2189     Br2196   1.929       .  S
C2191      C2192   1.406       .  A
C2191     Br2198   1.930       .  S
C2192     Br2197   1.925       .  S
C2193      C2194   1.411       .  A
C2194     Br2195   1.926       .  S
C2199      C2204   1.409       .  A
C2199     Br2206   1.928       .  S
C2200      C2201   1.409   1_455  A
C2201      C2202   1.405       .  A
C2201     Br2208   1.931       .  S
C2202      C2203   1.408   1_655  A
C2202     Br2207   1.924       .  S
C2204     Br2205   1.930       .  S
