geometry optimzed in LAMMPS
_audit_creation_date              2020-11-30 
_audit_creation_method            'lammps2cif' 
_symmetry_space_group_name_H-M    'P1' 
_symmetry_Int_Tables_number       1 
_symmetry_cell_setting            triclinic 
loop_ 
_symmetry_equiv_pos_as_xyz 
  x,y,z 
_cell_length_a                    51.18341677 
_cell_length_b                    51.04143525276992 
_cell_length_c                    50.663156721270326 
_cell_angle_alpha                 90.3430679593611 
_cell_angle_beta                  90.16154763175136 
_cell_angle_gamma                 89.79801256060857 
loop_ 
_atom_site_label 
_atom_site_type_symbol 
_atom_site_fract_x 
_atom_site_fract_y 
_atom_site_fract_z 
_atom_site_charge 
N1          N  0.89331005  0.60089204  0.82290909    -0.35600
N2          N  0.89141914  0.54405012  0.82452565    -0.56100
N3          N  0.94746813  0.54482155  0.80264433    -0.35600
N4          N  0.94491819  0.60122933  0.80052876    -0.56100
C5          C  0.86914754  0.59618208  0.83251728     0.28000
C6          C  0.89402943  0.62613961  0.81494915     0.28000
C7          C  0.94376609  0.52114879  0.81375287     0.28000
C8          C  0.97195608  0.55248400  0.80930416     0.28000
C9          C  0.87842106  0.55131990  0.84659530     0.36600
C10         C  0.90146728  0.52015994  0.82970505     0.36600
C11         C  0.93943352  0.62685860  0.79720355     0.36600
C12         C  0.96943842  0.59703065  0.79159303     0.36600
C13         C  0.85375003  0.61836946  0.82940530    -0.20900
C14         C  0.86959260  0.63742342  0.81870428    -0.20900
C15         C  0.96529449  0.51429009  0.82879468    -0.20900
C16         C  0.98311023  0.53410598  0.82604194    -0.20900
C17         C  0.88155150  0.53268880  0.86615078    -0.21900
C18         C  0.89624959  0.51291403  0.85541143    -0.21900
C19         C  0.96003197  0.63890342  0.78443436    -0.21900
C20         C  0.97874694  0.61980351  0.78014028    -0.21900
C21         C  0.86328512  0.57439562  0.84873554    -0.17300
C22         C  0.91682709  0.63971534  0.80701278    -0.17300
C23         C  0.98468223  0.57508075  0.79958668    -0.17300
C24         C  0.91997009  0.50748034  0.81384669    -0.17300
H25         H  0.83383501  0.62113257  0.83601537     0.15600
H26         H  0.86393497  0.65749530  0.81492622     0.15600
H27         H  0.96733623  0.49734665  0.84134874     0.15600
H28         H  0.00194337  0.53508336  0.83570969     0.15600
H29         H  0.87481613  0.53369519  0.88633333     0.13900
H30         H  0.90371388  0.49594251  0.86569285     0.13900
H31         H  0.96162086  0.65939016  0.77929871     0.13900
H32         H  0.99789095  0.62294767  0.77174471     0.13900
H33         H  0.90938514  0.58880892  0.82608724     0.27200
H34         H  0.93436557  0.55424861  0.79000316     0.27200
N35         N  0.10686549  0.60739485  0.81537607    -0.35600
N36         N  0.05097773  0.60671602  0.80708774    -0.56100
N37         N  0.05304773  0.54845048  0.80691331    -0.35600
N38         N  0.11431695  0.53767703  0.83236955    -0.56100
C39         C  0.10279157  0.63352256  0.81486818     0.28000
C40         C  0.13153180  0.60303861  0.82357330     0.28000
C41         C  0.02993055  0.55419173  0.79514215     0.28000
C42         C  0.05884369  0.52300711  0.80161654     0.28000
C43         C  0.05422290  0.63085083  0.81779189     0.36600
C44         C  0.02613437  0.59946169  0.81214832     0.36600
C45         C  0.12982433  0.55636669  0.82181027     0.36600
C46         C  0.10420414  0.52453058  0.81140381     0.36600
C47         C  0.12649643  0.64601778  0.81972718    -0.20900
C48         C  0.14463045  0.62663029  0.82570391    -0.20900
C49         C  0.02180002  0.53240799  0.78069853    -0.20900
C50         C  0.03992887  0.51264866  0.78499930    -0.20900
C51         C  0.03106428  0.63910250  0.82941520    -0.21900
C52         C  0.01362775  0.61890383  0.82662927    -0.21900
C53         C  0.12986726  0.55459852  0.79450502    -0.21900
C54         C  0.11336105  0.53467772  0.78794163    -0.21900
C55         C  0.07777929  0.64549528  0.81724452    -0.17300
C56         C  0.13811555  0.57898832  0.83554147    -0.17300
C57         C  0.08114030  0.50993162  0.81221472    -0.17300
C58         C  0.01430172  0.57663666  0.80144744    -0.17300
H59         H  0.12958858  0.66683659  0.82232286     0.15600
H60         H  0.16406899  0.62965361  0.83358284     0.15600
H61         H  0.00391248  0.53047799  0.76942276     0.15600
H62         H  0.03915085  0.49296823  0.77698689     0.15600
H63         H  0.02710756  0.65741708  0.83948320     0.13900
H64         H  0.99380922  0.61884671  0.83399963     0.13900
H65         H  0.13897583  0.56795632  0.78082743     0.13900
H66         H  0.10698235  0.52951029  0.76819743     0.13900
H67         H  0.09287538  0.59275598  0.81510124     0.27200
H68         H  0.06282427  0.56002196  0.82077419     0.27200
N69         N  0.90126329  0.38118803  0.83260341    -0.35600
N70         N  0.95069266  0.38299191  0.80820472    -0.56100
N71         N  0.95027608  0.44018885  0.81130351    -0.35600
N72         N  0.89802560  0.43804360  0.82740789    -0.56100
C73         C  0.91214063  0.35791870  0.83912908     0.28000
C74         C  0.88636254  0.38896882  0.85321132     0.28000
C75         C  0.97313488  0.43480088  0.79941950     0.28000
C76         C  0.94245696  0.46405205  0.80291698     0.28000
C77         C  0.94724115  0.35682587  0.80657680     0.36600
C78         C  0.97456204  0.38811878  0.79847039     0.36600
C79         C  0.87376444  0.43168554  0.83529776     0.36600
C80         C  0.89719163  0.46289776  0.81857725     0.36600
C81         C  0.90413005  0.35078082  0.86418055    -0.20900
C82         C  0.88863490  0.37084858  0.87343022    -0.20900
C83         C  0.98010813  0.45490740  0.78277601    -0.20900
C84         C  0.96045069  0.47335863  0.78467957    -0.20900
C85         C  0.96823999  0.34538973  0.79356772    -0.21900
C86         C  0.98566196  0.36533621  0.78843330    -0.21900
C87         C  0.85664189  0.45194415  0.82954176    -0.21900
C88         C  0.87143944  0.47166628  0.81871923    -0.21900
C89         C  0.92937760  0.34352129  0.82283925    -0.17300
C90         C  0.86907444  0.41073427  0.85276464    -0.17300
C91         C  0.91991402  0.47763232  0.81211144    -0.17300
C92         C  0.98755625  0.41194334  0.80391107    -0.17300
H93         H  0.90944390  0.33349427  0.87519913     0.15600
H94         H  0.87966008  0.37163243  0.89272298     0.15600
H95         H  0.99733850  0.45595770  0.77049675     0.15600
H96         H  0.95951258  0.49146772  0.77372784     0.15600
H97         H  0.97196050  0.32468107  0.79072665     0.13900
H98         H  0.00516409  0.36303903  0.78052807     0.13900
H99         H  0.83603333  0.45303177  0.83416706     0.13900
H100        H  0.86398102  0.49042652  0.81229884     0.13900
H101        H  0.90210076  0.39001909  0.81408758     0.27200
H102        H  0.94268927  0.42924942  0.82676507     0.27200
N103        N  0.05194360  0.38554154  0.82982925    -0.35600
N104        N  0.10412869  0.38931015  0.85210529    -0.56100
N105        N  0.10651364  0.44515245  0.84008234    -0.35600
N106        N  0.05379067  0.44208252  0.81543648    -0.56100
C107        C  0.05371402  0.36238714  0.84255757     0.28000
C108        C  0.02621396  0.39066940  0.82683211     0.28000
C109        C  0.13197812  0.43837258  0.84322518     0.28000
C110        C  0.10531359  0.46673286  0.82456683     0.28000
C111        C  0.09709496  0.36582621  0.86173290     0.36600
C112        C  0.12350466  0.39810823  0.86784123     0.36600
C113        C  0.02804658  0.43735231  0.81914406     0.36600
C114        C  0.05775544  0.46734822  0.82287809     0.36600
C115        C  0.02914827  0.35297062  0.84832334    -0.20900
C116        C  0.01185192  0.37143069  0.83953709    -0.20900
C117        C  0.14734894  0.45559564  0.82914905    -0.20900
C118        C  0.13064448  0.47330105  0.81724803    -0.20900
C119        C  0.11088671  0.36012055  0.88445270    -0.21900
C120        C  0.12685296  0.38127545  0.88903916    -0.21900
C121        C  0.01625914  0.45899095  0.83079835    -0.21900
C122        C  0.03499181  0.47805754  0.83292420    -0.21900
C123        C  0.07676576  0.35063330  0.85150317    -0.17300
C124        C  0.01552421  0.41299952  0.81427659    -0.17300
C125        C  0.08161749  0.48082304  0.81927821    -0.17300
C126        C  0.14111829  0.41774075  0.85970044    -0.17300
H127        H  0.02422484  0.33577828  0.85963745     0.15600
H128        H  0.99109221  0.37110472  0.84330913     0.15600
H129        H  0.16839708  0.45534890  0.82728683     0.15600
H130        H  0.13698597  0.48859881  0.80419582     0.15600
H131        H  0.10885261  0.34308383  0.89689028     0.13900
H132        H  0.14046982  0.38327845  0.90528707     0.13900
H133        H  0.99651504  0.46050346  0.83813926     0.13900
H134        H  0.03236290  0.49737267  0.84141624     0.13900
H135        H  0.06735354  0.39616018  0.82189568     0.27200
H136        H  0.09078863  0.43687699  0.85007153     0.27200
N137        N  0.82521698  0.60582529  0.90465506    -0.35600
N138        N  0.80186062  0.60390048  0.95565196    -0.56100
N139        N  0.80093523  0.54780704  0.95564029    -0.35600
N140        N  0.82158290  0.54979105  0.90288074    -0.56100
C141        C  0.83175584  0.62905399  0.91560680     0.28000
C142        C  0.84460945  0.59900842  0.88790610     0.28000
C143        C  0.80625310  0.55425240  0.98095852     0.28000
C144        C  0.81217021  0.52433042  0.95096408     0.28000
C145        C  0.79904503  0.62967257  0.95078506     0.36600
C146        C  0.78927273  0.59877947  0.97835638     0.36600
C147        C  0.82757222  0.55546018  0.87763797     0.36600
C148        C  0.81223586  0.52508620  0.90321982     0.36600
C149        C  0.85556223  0.63727192  0.90568481    -0.20900
C150        C  0.86404829  0.61790155  0.88877928    -0.20900
C151        C  0.82194693  0.53497466  0.99209287    -0.20900
C152        C  0.82523428  0.51573735  0.97320213    -0.20900
C153        C  0.78288465  0.64095192  0.96964031    -0.21900
C154        C  0.77636669  0.62119655  0.98702113    -0.21900
C155        C  0.82089465  0.53452809  0.86142010    -0.21900
C156        C  0.81086426  0.51533257  0.87763350    -0.21900
C157        C  0.81596380  0.64302181  0.93357781    -0.17300
C158        C  0.84384444  0.57685846  0.87098733    -0.17300
C159        C  0.80998568  0.51066424  0.92694293    -0.17300
C160        C  0.79627761  0.57683257  0.99384582    -0.17300
H161        H  0.86609768  0.65502869  0.91037259     0.15600
H162        H  0.88240459  0.61799492  0.87827469     0.15600
H163        H  0.83061388  0.53496885  0.01154699     0.15600
H164        H  0.83666204  0.49800336  0.97516143     0.15600
H165        H  0.77829858  0.66154198  0.97202190     0.13900
H166        H  0.76600128  0.62373757  0.00545627     0.13900
H167        H  0.82444387  0.53266491  0.84044386     0.13900
H168        H  0.80505010  0.49588104  0.87145147     0.13900
H169        H  0.80724278  0.59644734  0.90664979     0.27200
H170        H  0.78846526  0.55774548  0.94273222     0.27200
N171        N  0.82870107  0.60212533  0.11352591    -0.35600
N172        N  0.80744628  0.60696802  0.06130924    -0.56100
N173        N  0.80766239  0.54962343  0.05986067    -0.35600
N174        N  0.82885140  0.54507564  0.11253142    -0.56100
C175        C  0.82205084  0.62777886  0.11328447     0.28000
C176        C  0.83476226  0.59552742  0.13852993     0.28000
C177        C  0.79247027  0.55690767  0.03934773     0.28000
C178        C  0.80164467  0.52460926  0.06612949     0.28000
C179        C  0.81912058  0.63037769  0.06507571     0.36600
C180        C  0.80964245  0.60130590  0.03536584     0.36600
C181        C  0.84951174  0.55093902  0.12806901     0.36600
C182        C  0.83446707  0.52194463  0.10069664     0.36600
C183        C  0.82242977  0.63747258  0.13890570    -0.20900
C184        C  0.83030846  0.61697865  0.15494773    -0.20900
C185        C  0.77567072  0.53654352  0.03295158    -0.20900
C186        C  0.78126575  0.51619793  0.05010673    -0.20900
C187        C  0.82838436  0.63993599  0.04134286    -0.21900
C188        C  0.82323177  0.62104547  0.02270546    -0.21900
C189        C  0.86851365  0.53162969  0.12566787    -0.21900
C190        C  0.85878327  0.51303513  0.10851822    -0.21900
C191        C  0.82134555  0.64276677  0.08991251    -0.17300
C192        C  0.85072774  0.57354343  0.14439804    -0.17300
C193        C  0.81718354  0.50900418  0.08326638    -0.17300
C194        C  0.79821677  0.57894090  0.02347386    -0.17300
H195        H  0.81954070  0.65759813  0.14510012     0.15600
H196        H  0.83491091  0.61845019  0.17576699     0.15600
H197        H  0.76206885  0.53583067  0.01657305     0.15600
H198        H  0.77245850  0.49696467  0.04965455     0.15600
H199        H  0.83876341  0.65796692  0.03777524     0.13900
H200        H  0.82915250  0.62183753  0.00227152     0.13900
H201        H  0.88765696  0.53137461  0.13465161     0.13900
H202        H  0.86873841  0.49559624  0.10165595     0.13900
H203        H  0.83441954  0.59128871  0.09704951     0.27200
H204        H  0.82438839  0.55959006  0.06595463     0.27200
N205        N  0.82341682  0.38510207  0.90346801    -0.35600
N206        N  0.82305034  0.44282778  0.90144038    -0.56100
N207        N  0.79701782  0.44222267  0.95188217    -0.35600
N208        N  0.80193382  0.37208248  0.96698722    -0.56100
C209        C  0.83251829  0.39034207  0.87904964     0.28000
C210        C  0.81841932  0.35921496  0.90440970     0.28000
C211        C  0.79337703  0.46758975  0.94555314     0.28000
C212        C  0.78340867  0.43720892  0.97390232     0.28000
C213        C  0.84484023  0.43619351  0.88796093     0.36600
C214        C  0.82723906  0.46714556  0.91129807     0.36600
C215        C  0.79395505  0.35850965  0.94516979     0.36600
C216        C  0.78344485  0.39080156  0.97123181     0.36600
C217        C  0.83114304  0.36770766  0.86367218    -0.20900
C218        C  0.82300954  0.34781405  0.88000865    -0.20900
C219        C  0.77567420  0.47853346  0.96341597    -0.20900
C220        C  0.76996492  0.45938432  0.98186939    -0.20900
C221        C  0.86302047  0.45624436  0.88965810    -0.21900
C222        C  0.85165367  0.47605691  0.90406975    -0.21900
C223        C  0.77067659  0.36876007  0.93583276    -0.21900
C224        C  0.76405575  0.38906826  0.95216803    -0.21900
C225        C  0.84757180  0.41281538  0.87299116    -0.17300
C226        C  0.81131442  0.34607775  0.92763669    -0.17300
C227        C  0.78659078  0.41339491  0.98737261    -0.17300
C228        C  0.80923129  0.48118109  0.92707563    -0.17300
H229        H  0.83768870  0.36526307  0.84350965     0.15600
H230        H  0.82114307  0.32733334  0.87470092     0.15600
H231        H  0.76883895  0.49858845  0.96422323     0.15600
H232        H  0.75804312  0.46166103  0.99934343     0.15600
H233        H  0.88255875  0.45647683  0.88163177     0.13900
H234        H  0.86064609  0.49444603  0.90955274     0.13900
H235        H  0.76113686  0.36391967  0.91733901     0.13900
H236        H  0.74794712  0.40254719  0.94919542     0.13900
H237        H  0.82459648  0.39721754  0.91998938     0.27200
H238        H  0.81121418  0.42960130  0.94453691     0.27200
N239        N  0.83626892  0.38496739  0.10284210    -0.35600
N240        N  0.81162195  0.38533033  0.05136008    -0.56100
N241        N  0.80596855  0.44151084  0.05397286    -0.35600
N242        N  0.83031132  0.44030102  0.10566426    -0.56100
C243        C  0.84287542  0.36167972  0.09212914     0.28000
C244        C  0.85536351  0.39173340  0.11998282     0.28000
C245        C  0.80759670  0.43570946  0.02784914     0.28000
C246        C  0.81625028  0.46569871  0.05776075     0.28000
C247        C  0.80868095  0.36006218  0.05837458     0.36600
C248        C  0.79520645  0.38974919  0.03095734     0.36600
C249        C  0.83683848  0.43457798  0.13081622     0.36600
C250        C  0.81973033  0.46453072  0.10576423     0.36600
C251        C  0.86669437  0.35343409  0.10226590    -0.20900
C252        C  0.87492677  0.37279446  0.11943572    -0.20900
C253        C  0.82039087  0.45604792  0.01523734    -0.20900
C254        C  0.82547124  0.47509454  0.03403438    -0.20900
C255        C  0.78962928  0.34835141  0.04291650    -0.21900
C256        C  0.78077162  0.36731474  0.02573278    -0.21900
C257        C  0.82932058  0.45487595  0.14742718    -0.21900
C258        C  0.81815935  0.47379225  0.13156461    -0.21900
C259        C  0.82615760  0.34723427  0.07554081    -0.17300
C260        C  0.85380617  0.41361317  0.13722230    -0.17300
C261        C  0.81664133  0.47928622  0.08229781    -0.17300
C262        C  0.79636916  0.41292907  0.01577021    -0.17300
H263        H  0.87709713  0.33545653  0.09788743     0.15600
H264        H  0.89298100  0.37252721  0.13056769     0.15600
H265        H  0.82612764  0.45690030  0.99478058     0.15600
H266        H  0.83552257  0.49336615  0.03085045     0.15600
H267        H  0.78337655  0.32813179  0.04336864     0.13900
H268        H  0.76581512  0.36450847  0.01089973     0.13900
H269        H  0.83288661  0.45650581  0.16844031     0.13900
H270        H  0.81127929  0.49278791  0.13815631     0.13900
H271        H  0.81806192  0.39403460  0.10086554     0.27200
H272        H  0.79608260  0.43061227  0.06816316     0.27200
N273        N  0.15895486  0.60482005  0.90190332    -0.35600
N274        N  0.16503220  0.60249114  0.95803099    -0.56100
N275        N  0.16553127  0.54701465  0.95486905    -0.35600
N276        N  0.15671440  0.54714286  0.89926777    -0.56100
C277        C  0.15286494  0.62906086  0.91082924     0.28000
C278        C  0.14230512  0.59916392  0.88191498     0.28000
C279        C  0.15663291  0.55080678  0.97967657     0.28000
C280        C  0.16054932  0.52202955  0.94790564     0.28000
C281        C  0.17317475  0.62718034  0.95409521     0.36600
C282        C  0.17147578  0.59628032  0.98296746     0.36600
C283        C  0.15857928  0.55509771  0.87400325     0.36600
C284        C  0.17128077  0.52509520  0.90160123     0.36600
C285        C  0.13160267  0.63881023  0.89716523    -0.20900
C286        C  0.12418874  0.61936970  0.87969911    -0.20900
C287        C  0.14479762  0.52799985  0.98837231    -0.20900
C288        C  0.14708612  0.50975847  0.96808663    -0.20900
C289        C  0.18541154  0.63680136  0.97655835    -0.21900
C290        C  0.18443538  0.61703766  0.99496159    -0.21900
C291        C  0.17439623  0.53823081  0.85983580    -0.21900
C292        C  0.18306651  0.51960393  0.87740676    -0.21900
C293        C  0.16564043  0.64168933  0.93189591    -0.17300
C294        C  0.14594822  0.57767135  0.86431715    -0.17300
C295        C  0.17213147  0.51028076  0.92544657    -0.17300
C296        C  0.16276301  0.57314909  0.99520995    -0.17300
H297        H  0.12172983  0.65734054  0.90038102     0.15600
H298        H  0.10729736  0.62014787  0.86695228     0.15600
H299        H  0.13674433  0.52443980  0.00774504     0.15600
H300        H  0.14128480  0.48940462  0.96879873     0.15600
H301        H  0.19314808  0.65628228  0.97970442     0.13900
H302        H  0.19156095  0.61816072  0.01506571     0.13900
H303        H  0.18008717  0.53987713  0.83935938     0.13900
H304        H  0.19690352  0.50448145  0.87232656     0.13900
H305        H  0.17533491  0.59391564  0.90754125     0.27200
H306        H  0.17821977  0.55921007  0.94459830     0.27200
N307        N  0.15861996  0.61372303  0.12153118    -0.35600
N308        N  0.19230740  0.55081932  0.11672794    -0.56100
N309        N  0.17808140  0.54566164  0.06267035    -0.35600
N310        N  0.15762717  0.60039706  0.06273659    -0.56100
C311        C  0.17688084  0.60023121  0.13478365     0.28000
C312        C  0.17143045  0.63100629  0.10644915     0.28000
C313        C  0.19653406  0.52662911  0.06575025     0.28000
C314        C  0.17916186  0.55354730  0.03719968     0.28000
C315        C  0.18523379  0.55507979  0.14210844     0.36600
C316        C  0.19826708  0.52520339  0.11428168     0.36600
C317        C  0.14916218  0.62544654  0.06535456     0.36600
C318        C  0.14915220  0.59176497  0.03906165     0.36600
C319        C  0.20163539  0.60895954  0.12815694    -0.20900
C320        C  0.19810783  0.62904168  0.11041307    -0.20900
C321        C  0.20954208  0.52302415  0.04206265    -0.20900
C322        C  0.19888757  0.54015582  0.02433306    -0.20900
C323        C  0.18869341  0.53254589  0.15667781    -0.21900
C324        C  0.19789403  0.51375668  0.13920955    -0.21900
C325        C  0.13355181  0.63221488  0.04411928    -0.21900
C326        C  0.13295174  0.61055867  0.02776014    -0.21900
C327        C  0.17128996  0.57785729  0.14946116    -0.17300
C328        C  0.15998229  0.64239930  0.08447798    -0.17300
C329        C  0.16225409  0.57177091  0.02478141    -0.17300
C330        C  0.20081794  0.51220626  0.08932671    -0.17300
H331        H  0.22014348  0.60083453  0.13455150     0.15600
H332        H  0.21330827  0.63883972  0.09946554     0.15600
H333        H  0.22608595  0.51095374  0.03763160     0.15600
H334        H  0.20554409  0.54306126  0.00433920     0.15600
H335        H  0.18392486  0.52966689  0.17725351     0.13900
H336        H  0.20201997  0.49359482  0.14418494     0.13900
H337        H  0.12468746  0.65098726  0.03994668     0.13900
H338        H  0.12417653  0.60992430  0.00830300     0.13900
H339        H  0.13863241  0.60960607  0.12073725     0.27200
H340        H  0.16397842  0.55131459  0.07644275     0.27200
N341        N  0.19509036  0.38779965  0.89630133    -0.35600
N342        N  0.17045611  0.45702399  0.89167009    -0.56100
N343        N  0.20130432  0.44755360  0.95516190    -0.35600
N344        N  0.20814851  0.39071536  0.95329371    -0.56100
C345        C  0.18163886  0.39162444  0.87359849     0.28000
C346        C  0.19528885  0.36197224  0.90152735     0.28000
C347        C  0.19575618  0.47331790  0.95156431     0.28000
C348        C  0.20608192  0.44346942  0.98118118     0.28000
C349        C  0.18243179  0.43878502  0.87650847     0.36600
C350        C  0.19000267  0.46912445  0.90475163     0.36600
C351        C  0.21352980  0.36529465  0.94757184     0.36600
C352        C  0.21883290  0.39611916  0.97725342     0.36600
C353        C  0.17555555  0.36750463  0.86253292    -0.20900
C354        C  0.18398859  0.34872505  0.88030510    -0.20900
C355        C  0.19884371  0.48622892  0.97522694    -0.20900
C356        C  0.20352971  0.46755196  0.99399036    -0.20900
C357        C  0.20941009  0.44096178  0.87834308    -0.21900
C358        C  0.21419134  0.45980901  0.89696196    -0.21900
C359        C  0.22819127  0.35451750  0.96782256    -0.21900
C360        C  0.23208060  0.37409610  0.98623076    -0.21900
C361        C  0.16960948  0.41609202  0.86771005    -0.17300
C362        C  0.20303275  0.35073157  0.92597550    -0.17300
C363        C  0.21304606  0.41881751  0.99301640    -0.17300
C364        C  0.18604845  0.48401645  0.92748333    -0.17300
H365        H  0.16381899  0.36395816  0.84507672     0.15600
H366        H  0.18038401  0.32791976  0.87857343     0.15600
H367        H  0.19750891  0.50692883  0.97897090     0.15600
H368        H  0.20439181  0.47235579  0.01453737     0.15600
H369        H  0.22386186  0.42800985  0.86966848     0.13900
H370        H  0.23302099  0.46487358  0.90528993     0.13900
H371        H  0.23497067  0.33446921  0.96935029     0.13900
H372        H  0.24211796  0.37191146  0.00492375     0.13900
H373        H  0.20088434  0.40252639  0.90916917     0.27200
H374        H  0.20005623  0.43349583  0.94040626     0.27200
N375        N  0.18204939  0.39187913  0.11356338    -0.35600
N376        N  0.18487527  0.44714773  0.11532053    -0.56100
N377        N  0.20398687  0.44395429  0.06037746    -0.35600
N378        N  0.20144832  0.38759735  0.06016280    -0.56100
C379        C  0.17714555  0.39789107  0.13905144     0.28000
C380        C  0.18898634  0.36643710  0.11227865     0.28000
C381        C  0.21426197  0.46608197  0.07085324     0.28000
C382        C  0.21993108  0.43520943  0.04105838     0.28000
C383        C  0.16368976  0.44229834  0.13020585     0.36600
C384        C  0.18043263  0.47012883  0.10331571     0.36600
C385        C  0.18936082  0.36448027  0.06378105     0.36600
C386        C  0.19933395  0.39345764  0.03426265     0.36600
C387        C  0.18274888  0.37639614  0.15468235    -0.20900
C388        C  0.19010882  0.35636087  0.13767864    -0.20900
C389        C  0.23855739  0.47026521  0.05954697    -0.20900
C390        C  0.24186334  0.45107174  0.04006415    -0.20900
C391        C  0.14530392  0.46199655  0.12707635    -0.21900
C392        C  0.15612151  0.47996896  0.11012326    -0.21900
C393        C  0.17964609  0.35524112  0.03990302    -0.21900
C394        C  0.18510505  0.37408745  0.02139174    -0.21900
C395        C  0.16171247  0.41983090  0.14612238    -0.17300
C396        C  0.18809449  0.35187433  0.08851978    -0.17300
C397        C  0.21192467  0.41548864  0.02297388    -0.17300
C398        C  0.19970078  0.48255270  0.08824899    -0.17300
H399        H  0.17931825  0.37459292  0.17566051     0.15600
H400        H  0.19358453  0.33623220  0.14326992     0.15600
H401        H  0.25191423  0.48608120  0.06401488     0.15600
H402        H  0.25790344  0.44951822  0.02627290     0.15600
H403        H  0.12594071  0.46275410  0.13538826     0.13900
H404        H  0.14709339  0.49777117  0.10304140     0.13900
H405        H  0.16907526  0.33732014  0.03608498     0.13900
H406        H  0.17930508  0.37328932  0.00087470     0.13900
H407        H  0.17551158  0.40287965  0.09755546     0.27200
H408        H  0.18504540  0.43710844  0.06359436     0.27200
N409        N  0.90410939  0.60600484  0.18426802    -0.35600
N410        N  0.90359477  0.54993541  0.18843701    -0.56100
N411        N  0.95525642  0.54865947  0.21074984    -0.35600
N412        N  0.95363534  0.60509977  0.20952391    -0.56100
C413        C  0.88866734  0.59854467  0.16395550     0.28000
C414        C  0.91440093  0.62945992  0.17805186     0.28000
C415        C  0.95144166  0.52482880  0.19970935     0.28000
C416        C  0.98021207  0.55552854  0.20566278     0.28000
C417        C  0.87874052  0.55516949  0.18127304     0.36600
C418        C  0.90409405  0.52534136  0.19801924     0.36600
C419        C  0.94826514  0.63085629  0.21214374     0.36600
C420        C  0.97649582  0.60053982  0.22194298     0.36600
C421        C  0.88982591  0.61722214  0.14415720    -0.20900
C422        C  0.90550455  0.63714264  0.15340132    -0.20900
C423        C  0.97393708  0.51640981  0.18721648    -0.20900
C424        C  0.99202722  0.53603731  0.19056741    -0.20900
C425        C  0.86284053  0.53421107  0.18757092    -0.21900
C426        C  0.87890048  0.51535823  0.19855315    -0.21900
C427        C  0.96696875  0.64263180  0.22807186    -0.21900
C428        C  0.98484747  0.62329306  0.23446527    -0.21900
C429        C  0.87236651  0.57618986  0.16437442    -0.17300
C430        C  0.93093967  0.64390945  0.19492972    -0.17300
C431        C  0.99228294  0.57876480  0.21502761    -0.17300
C432        C  0.92771883  0.51101437  0.20060081    -0.17300
H433        H  0.88028789  0.61681133  0.12509677     0.15600
H434        H  0.91013524  0.65485484  0.14282328     0.15600
H435        H  0.97655065  0.49858991  0.17588146     0.15600
H436        H  0.01140548  0.53615960  0.18219581     0.15600
H437        H  0.84226198  0.53207862  0.18311909     0.13900
H438        H  0.87295016  0.49590850  0.20433151     0.13900
H439        H  0.96904399  0.66332513  0.23231769     0.13900
H440        H  0.00331218  0.62630674  0.24447326     0.13900
H441        H  0.90549289  0.59692778  0.20263371     0.27200
H442        H  0.94192516  0.55876601  0.22264976     0.27200
N443        N  0.11153160  0.60645572  0.18112152    -0.35600
N444        N  0.11406092  0.55020980  0.18749426    -0.56100
N445        N  0.05958904  0.55368726  0.20599348    -0.35600
N446        N  0.05807625  0.60944071  0.20108341    -0.56100
C447        C  0.13725215  0.60102828  0.17804273     0.28000
C448        C  0.10909830  0.63213618  0.18742160     0.28000
C449        C  0.06710325  0.52949389  0.21365801     0.28000
C450        C  0.03811396  0.56049566  0.21990384     0.28000
C451        C  0.13074662  0.55490991  0.16742480     0.36600
C452        C  0.10281969  0.52687226  0.18213401     0.36600
C453        C  0.06104636  0.63248249  0.18862751     0.36600
C454        C  0.03242975  0.60348030  0.19974895     0.36600
C455        C  0.15153540  0.62354166  0.18340704    -0.20900
C456        C  0.13371649  0.64324263  0.18911436    -0.20900
C457        C  0.05077371  0.52113268  0.23374834    -0.20900
C458        C  0.03230491  0.54070199  0.23756801    -0.20900
C459        C  0.12928707  0.53495598  0.14885012    -0.21900
C460        C  0.11166045  0.51705968  0.15832204    -0.21900
C461        C  0.03712867  0.64147075  0.17941819    -0.21900
C462        C  0.01911217  0.62261623  0.18569056    -0.21900
C463        C  0.14672643  0.57744554  0.16620729    -0.17300
C464        C  0.08502326  0.64585123  0.18739051    -0.17300
C465        C  0.02150315  0.58154963  0.21261880    -0.17300
C466        C  0.08559354  0.51413965  0.19949128    -0.17300
H467        H  0.17248444  0.62590827  0.18206937     0.15600
H468        H  0.13832587  0.66361504  0.19279142     0.15600
H469        H  0.05109757  0.50233642  0.24350100     0.15600
H470        H  0.01559698  0.53976569  0.25057172     0.15600
H471        H  0.13896817  0.53399567  0.12997554     0.13900
H472        H  0.10515826  0.49942235  0.14852418     0.13900
H473        H  0.03303687  0.65932172  0.16876905     0.13900
H474        H  0.99863352  0.62316097  0.18046046     0.13900
H475        H  0.09629723  0.59433411  0.17504427     0.27200
H476        H  0.06596247  0.56300217  0.18894010     0.27200
N477        N  0.90209826  0.38873812  0.18523910    -0.35600
N478        N  0.90110601  0.44504497  0.18515559    -0.56100
N479        N  0.95378454  0.44209476  0.20737589    -0.35600
N480        N  0.95427962  0.38532533  0.20795718    -0.56100
C481        C  0.87780489  0.39426606  0.17646762     0.28000
C482        C  0.90271431  0.36338165  0.19259844     0.28000
C483        C  0.94632188  0.46662824  0.21421516     0.28000
C484        C  0.97521433  0.43589029  0.22157382     0.28000
C485        C  0.88761442  0.43903484  0.16301624     0.36600
C486        C  0.91213853  0.46858013  0.18083984     0.36600
C487        C  0.95066729  0.36144139  0.19691048     0.36600
C488        C  0.97983036  0.39123036  0.20483689     0.36600
C489        C  0.86202465  0.37250319  0.17983043    -0.20900
C490        C  0.87780660  0.35292196  0.19008910    -0.20900
C491        C  0.96270755  0.47581071  0.23410698    -0.20900
C492        C  0.98124828  0.45646683  0.23847312    -0.20900
C493        C  0.89054906  0.45866296  0.14446858    -0.21900
C494        C  0.90584053  0.47766120  0.15599668    -0.21900
C495        C  0.97413139  0.35181487  0.18721527    -0.21900
C496        C  0.99239499  0.37106505  0.19143001    -0.21900
C497        C  0.87246517  0.41606848  0.16011292    -0.17300
C498        C  0.92617420  0.34884417  0.19488567    -0.17300
C499        C  0.99146445  0.41434749  0.21514397    -0.17300
C500        C  0.92803755  0.48153762  0.19939068    -0.17300
H501        H  0.84202105  0.37022878  0.17324903     0.15600
H502        H  0.87218248  0.33270458  0.19283948     0.15600
H503        H  0.96247863  0.49501122  0.24326105     0.15600
H504        H  0.99804795  0.45794103  0.25141111     0.15600
H505        H  0.88315599  0.45886066  0.12449226     0.13900
H506        H  0.91276496  0.49537409  0.14682027     0.13900
H507        H  0.97763781  0.33348941  0.17699323     0.13900
H508        H  0.01250509  0.37025750  0.18500815     0.13900
H509        H  0.91843857  0.39990735  0.18083495     0.27200
H510        H  0.94761600  0.43190008  0.19062164     0.27200
N511        N  0.10976501  0.38812789  0.18830634    -0.35600
N512        N  0.10927516  0.44497210  0.18953599    -0.56100
N513        N  0.05778960  0.44719053  0.21106684    -0.35600
N514        N  0.05943796  0.39059552  0.21174333    -0.56100
C515        C  0.12476811  0.39479868  0.16750486     0.28000
C516        C  0.09950311  0.36429916  0.18301536     0.28000
C517        C  0.06161057  0.47086209  0.19996419     0.28000
C518        C  0.03277210  0.44020757  0.20619738     0.28000
C519        C  0.13414832  0.43924964  0.18288815     0.36600
C520        C  0.10898848  0.46977965  0.19894880     0.36600
C521        C  0.06505875  0.36516807  0.21622477     0.36600
C522        C  0.03673729  0.39597594  0.22406931     0.36600
C523        C  0.12344559  0.37512206  0.14848408    -0.20900
C524        C  0.10821987  0.35547860  0.15866305    -0.20900
C525        C  0.03897076  0.47909767  0.18754400    -0.20900
C526        C  0.02083497  0.45949214  0.19106784    -0.20900
C527        C  0.15025242  0.46011347  0.18931382    -0.21900
C528        C  0.13435630  0.47931455  0.20007347    -0.21900
C529        C  0.04664240  0.35458941  0.23305066    -0.21900
C530        C  0.02877028  0.37428063  0.23828669    -0.21900
C531        C  0.14052926  0.41758658  0.16659098    -0.17300
C532        C  0.08229720  0.35089743  0.19990413    -0.17300
C533        C  0.02079856  0.41727824  0.21629087    -0.17300
C534        C  0.08550448  0.48456281  0.20083710    -0.17300
H535        H  0.13229359  0.37479187  0.12914804     0.15600
H536        H  0.10343927  0.33732629  0.14869197     0.15600
H537        H  0.03624694  0.49678660  0.17622659     0.15600
H538        H  0.00129998  0.45931962  0.18295853     0.15600
H539        H  0.17093540  0.46183838  0.18532382     0.13900
H540        H  0.14057891  0.49869430  0.20606161     0.13900
H541        H  0.04490078  0.33432133  0.23891315     0.13900
H542        H  0.01059877  0.37204848  0.24889631     0.13900
H543        H  0.10818529  0.39832350  0.20616507     0.27200
H544        H  0.07116457  0.43734163  0.22308505     0.27200
N545        N  0.60404196  0.88847164  0.83088074    -0.35600
N546        N  0.54969547  0.88606438  0.82739771    -0.56100
N547        N  0.53718205  0.95755292  0.81687023    -0.35600
N548        N  0.60431751  0.94391081  0.82260949    -0.56100
C549        C  0.59991855  0.86242781  0.83156678     0.28000
C550        C  0.62951239  0.89243764  0.82541845     0.28000
C551        C  0.53043097  0.93384647  0.80692008     0.28000
C552        C  0.55778228  0.96631615  0.80255644     0.28000
C553        C  0.55306605  0.86221954  0.83849199     0.36600
C554        C  0.52379431  0.89062813  0.82509663     0.36600
C555        C  0.62747947  0.93963252  0.83455086     0.36600
C556        C  0.59767625  0.96900159  0.82767219     0.36600
C557        C  0.62286635  0.84935802  0.82519018    -0.20900
C558        C  0.64162533  0.86839095  0.82108968    -0.20900
C559        C  0.54644472  0.92757988  0.78582845    -0.20900
C560        C  0.56341598  0.94818650  0.78285602    -0.20900
C561        C  0.52885037  0.85061082  0.84148150    -0.21900
C562        C  0.51041592  0.86832306  0.83256903    -0.21900
C563        C  0.63520454  0.96191288  0.84826800    -0.21900
C564        C  0.61572667  0.98021616  0.84474052    -0.21900
C565        C  0.57818186  0.85147311  0.84452068    -0.17300
C566        C  0.64215855  0.91650134  0.83059627    -0.17300
C567        C  0.57753830  0.98206283  0.81373083    -0.17300
C568        C  0.51338194  0.91595023  0.81918081    -0.17300
H569        H  0.62625638  0.82843317  0.82594554     0.15600
H570        H  0.66223021  0.86473769  0.81805887     0.15600
H571        H  0.54687047  0.90929797  0.77489426     0.15600
H572        H  0.58028822  0.94827528  0.77001634     0.15600
H573        H  0.52459380  0.83101271  0.84759455     0.13900
H574        H  0.48962272  0.86494220  0.83165232     0.13900
H575        H  0.65287881  0.96498213  0.85955245     0.13900
H576        H  0.61572444  0.00000617  0.85251905     0.13900
H577        H  0.59173981  0.90224323  0.83970493     0.27200
H578        H  0.53059930  0.96550285  0.83471722     0.27200
N579        N  0.60855705  0.10409398  0.83358667    -0.35600
N580        N  0.60647192  0.05043373  0.81250170    -0.56100
N581        N  0.55175565  0.04878112  0.82305519    -0.35600
N582        N  0.55291159  0.10520280  0.83854141    -0.56100
C583        C  0.63300552  0.10185915  0.82371015     0.28000
C584        C  0.60422596  0.12972292  0.83965761     0.28000
C585        C  0.55521879  0.02621800  0.80955378     0.28000
C586        C  0.52772923  0.05788425  0.81692787     0.28000
C587        C  0.63250895  0.05447936  0.81053490     0.36600
C588        C  0.60252323  0.02471579  0.80694582     0.36600
C589        C  0.56015989  0.12288991  0.85699401     0.36600
C590        C  0.52990421  0.09541885  0.84658448     0.36600
C591        C  0.64446525  0.12639950  0.82322817    -0.20900
C592        C  0.62615025  0.14405228  0.83269692    -0.20900
C593        C  0.53356063  0.02103626  0.79402459    -0.20900
C594        C  0.51638032  0.04146383  0.79817689    -0.20900
C595        C  0.64476427  0.03180743  0.80167004    -0.21900
C596        C  0.62571842  0.01319059  0.79880755    -0.21900
C597        C  0.54210381  0.12349607  0.87737841    -0.21900
C598        C  0.52255325  0.10634770  0.87045592    -0.21900
C599        C  0.64579153  0.07795983  0.81724586    -0.17300
C600        C  0.58216263  0.13926503  0.85416297    -0.17300
C601        C  0.51503837  0.07821433  0.83107251    -0.17300
C602        C  0.57833937  0.01145913  0.81010755    -0.17300
H603        H  0.66402683  0.13110690  0.81679897     0.15600
H604        H  0.62911534  0.16491600  0.83490154     0.15600
H605        H  0.53080672  0.00501251  0.78024988     0.15600
H606        H  0.49742563  0.04352303  0.78891041     0.15600
H607        H  0.66534995  0.02893686  0.79772415     0.13900
H608        H  0.62876180  0.99324137  0.79211682     0.13900
H609        H  0.54296230  0.13497478  0.89535289     0.13900
H610        H  0.50520276  0.10204068  0.88171403     0.13900
H611        H  0.59700217  0.08846514  0.83938494     0.27200
H612        H  0.56405503  0.05584691  0.83791282     0.27200
N613        N  0.39217887  0.90176307  0.84742624    -0.35600
N614        N  0.38831245  0.95006490  0.81922854    -0.56100
N615        N  0.44631026  0.95062330  0.81982196    -0.35600
N616        N  0.44852122  0.90172022  0.84583652    -0.56100
C617        C  0.36746826  0.90037974  0.83819282     0.28000
C618        C  0.39885339  0.87786183  0.85616609     0.28000
C619        C  0.43874123  0.97049266  0.80423787     0.28000
C620        C  0.47027959  0.94226674  0.81193676     0.28000
C621        C  0.36423489  0.94718040  0.82973071     0.36600
C622        C  0.39426720  0.97571415  0.82132342     0.36600
C623        C  0.44373936  0.88882765  0.86839403     0.36600
C624        C  0.47307972  0.91103721  0.84761116     0.36600
C625        C  0.35846277  0.87488902  0.84032854    -0.20900
C626        C  0.37846830  0.86053810  0.85164157    -0.20900
C627        C  0.45804885  0.97527994  0.78583364    -0.20900
C628        C  0.47764683  0.95691476  0.79009840    -0.20900
C629        C  0.35449254  0.97110070  0.83814456    -0.21900
C630        C  0.37397889  0.98903515  0.83378434    -0.21900
C631        C  0.46537855  0.89023384  0.88495036    -0.21900
C632        C  0.48416153  0.90423781  0.87158407    -0.21900
C633        C  0.35214213  0.92268711  0.83308390    -0.17300
C634        C  0.42112340  0.87342702  0.87194457    -0.17300
C635        C  0.48551306  0.92362848  0.82637689    -0.17300
C636        C  0.41718577  0.98678001  0.81038698    -0.17300
H637        H  0.33907041  0.86776269  0.83577594     0.15600
H638        H  0.37754719  0.84016728  0.85735830     0.15600
H639        H  0.45823788  0.99075303  0.77132460     0.15600
H640        H  0.49543348  0.95560268  0.77879590     0.15600
H641        H  0.33609010  0.97503288  0.84786184     0.13900
H642        H  0.37318613  0.00946430  0.83944139     0.13900
H643        H  0.46767965  0.88145789  0.90420876     0.13900
H644        H  0.50375556  0.90853539  0.87838273     0.13900
H645        H  0.40231979  0.91885195  0.85208951     0.27200
H646        H  0.43688091  0.94602301  0.83738271     0.27200
N647        N  0.39129729  0.10473234  0.83867968    -0.35600
N648        N  0.44702037  0.10515725  0.83885736    -0.56100
N649        N  0.44905981  0.05284810  0.81873757    -0.35600
N650        N  0.39424661  0.05476349  0.81321198    -0.56100
C651        C  0.39754754  0.12061597  0.85919942     0.28000
C652        C  0.36802473  0.09367794  0.84416517     0.28000
C653        C  0.47127438  0.05662443  0.83248460     0.28000
C654        C  0.44216037  0.02759262  0.82189239     0.28000
C655        C  0.44144240  0.13035691  0.84414395     0.36600
C656        C  0.47217252  0.10393029  0.83141512     0.36600
C657        C  0.36874887  0.05995646  0.80946511     0.36600
C658        C  0.39963268  0.03208041  0.80064085     0.36600
C659        C  0.37818272  0.11927652  0.87821986    -0.20900
C660        C  0.35917642  0.10284649  0.86841198    -0.20900
C661        C  0.47868472  0.03371348  0.84494725    -0.20900
C662        C  0.46004919  0.01532817  0.83849647    -0.20900
C663        C  0.46284439  0.14589127  0.83840741    -0.21900
C664        C  0.48235946  0.12905989  0.82987738    -0.21900
C665        C  0.35809566  0.04148742  0.79237134    -0.21900
C666        C  0.37789453  0.02396001  0.78640543    -0.21900
C667        C  0.41976774  0.13710373  0.85986016    -0.17300
C668        C  0.35477888  0.07607925  0.82716627    -0.17300
C669        C  0.42038677  0.01591943  0.80925632    -0.17300
C670        C  0.48585256  0.07985224  0.83123418    -0.17300
H671        H  0.37756575  0.12926929  0.89709823     0.15600
H672        H  0.34122029  0.09803947  0.87841897     0.15600
H673        H  0.49579734  0.03061207  0.85714998     0.15600
H674        H  0.45983995  0.99536919  0.84545119     0.15600
H675        H  0.46477852  0.16673704  0.84187266     0.13900
H676        H  0.50213346  0.13462771  0.82507485     0.13900
H677        H  0.33773381  0.03918148  0.78709476     0.13900
H678        H  0.37556661  0.00558309  0.77590146     0.13900
H679        H  0.40126112  0.10323160  0.82077340     0.27200
H680        H  0.44070474  0.06623460  0.80564690     0.27200
N681        N  0.61295595  0.81870310  0.90292239    -0.35600
N682        N  0.60963587  0.81866321  0.96125122    -0.56100
N683        N  0.55443691  0.81929356  0.95884271    -0.35600
N684        N  0.55240685  0.82562571  0.90221648    -0.56100
C685        C  0.63581710  0.82704795  0.91329264     0.28000
C686        C  0.60561504  0.83631317  0.88438901     0.28000
C687        C  0.55837177  0.82963771  0.98304464     0.28000
C688        C  0.52954580  0.82412375  0.95172006     0.28000
C689        C  0.63412176  0.80965657  0.95747652     0.36600
C690        C  0.60346557  0.81373659  0.98657739     0.36600
C691        C  0.56287997  0.81875275  0.87894716     0.36600
C692        C  0.53430386  0.80746599  0.90803879     0.36600
C693        C  0.64296031  0.85052997  0.90220264    -0.20900
C694        C  0.62331576  0.85697593  0.88484643    -0.20900
C695        C  0.53577965  0.84254344  0.99110525    -0.20900
C696        C  0.51749601  0.83926743  0.97104654    -0.20900
C697        C  0.64364871  0.79847940  0.98041062    -0.21900
C698        C  0.62401994  0.80081496  0.99888897    -0.21900
C699        C  0.55283368  0.79501868  0.87034839    -0.21900
C700        C  0.53456049  0.78765271  0.88915895    -0.21900
C701        C  0.64858507  0.81546534  0.93475252    -0.17300
C702        C  0.58316974  0.83324923  0.86782303    -0.17300
C703        C  0.51795843  0.81059603  0.93025343    -0.17300
C704        C  0.58050687  0.82354596  0.99873690    -0.17300
H705        H  0.65927918  0.86281502  0.90782922     0.15600
H706        H  0.62179056  0.87568717  0.87537304     0.15600
H707        H  0.53234233  0.85189457  0.01000997     0.15600
H708        H  0.49725908  0.84547364  0.97151578     0.15600
H709        H  0.66294592  0.79038113  0.98369943     0.13900
H710        H  0.62511390  0.79454590  0.01922583     0.13900
H711        H  0.55823642  0.78424840  0.85272371     0.13900
H712        H  0.52250863  0.77027746  0.88874038     0.13900
H713        H  0.60340035  0.80132291  0.90775783     0.27200
H714        H  0.56642476  0.80562649  0.94934559     0.27200
N715        N  0.62270374  0.83119168  0.12415844    -0.35600
N716        N  0.55697402  0.80009597  0.12024294    -0.56100
N717        N  0.55163293  0.81303095  0.06662046    -0.35600
N718        N  0.60878779  0.82924001  0.06559410    -0.56100
C719        C  0.60782322  0.81394061  0.13717896     0.28000
C720        C  0.63989764  0.81719489  0.10962825     0.28000
C721        C  0.53147468  0.79601565  0.07032444     0.28000
C722        C  0.55979696  0.81009481  0.04132667     0.28000
C723        C  0.56241902  0.80710419  0.14541746     0.36600
C724        C  0.53109197  0.79541300  0.11879337     0.36600
C725        C  0.63400185  0.83721981  0.06746153     0.36600
C726        C  0.59970570  0.83775015  0.04212500     0.36600
C727        C  0.61557361  0.78857874  0.13092267    -0.20900
C728        C  0.63633040  0.79068468  0.11371470    -0.20900
C729        C  0.52752939  0.78197231  0.04717613    -0.20900
C730        C  0.54539856  0.79062397  0.02917447    -0.20900
C731        C  0.54033755  0.80468740  0.16084866    -0.21900
C732        C  0.52060248  0.79636408  0.14412733    -0.21900
C733        C  0.64042886  0.85236393  0.04586315    -0.21900
C734        C  0.61848859  0.85323865  0.03015722    -0.21900
C735        C  0.58545489  0.82095297  0.15168531    -0.17300
C736        C  0.65119061  0.82729259  0.08691602    -0.17300
C737        C  0.57907797  0.82520799  0.02835455    -0.17300
C738        C  0.51724974  0.79309815  0.09435797    -0.17300
H739        H  0.60641682  0.77058671  0.13719808     0.15600
H740        H  0.64551473  0.77472473  0.10301873     0.15600
H741        H  0.51491673  0.76576076  0.04335786     0.15600
H742        H  0.54808465  0.78276208  0.00950481     0.15600
H743        H  0.53834852  0.80980854  0.18150670     0.13900
H744        H  0.50055482  0.79320134  0.14990192     0.13900
H745        H  0.65896781  0.86114928  0.04109117     0.13900
H746        H  0.61749064  0.86186906  0.01071154     0.13900
H747        H  0.61946167  0.85138311  0.12290616     0.27200
H748        H  0.55810879  0.82739005  0.07984141     0.27200
N749        N  0.39310927  0.82694221  0.92103005    -0.35600
N750        N  0.39569738  0.79215124  0.96323615    -0.56100
N751        N  0.45268197  0.78742089  0.95912509    -0.35600
N752        N  0.44945604  0.82280482  0.91575738    -0.56100
C753        C  0.36946993  0.83029661  0.93215194     0.28000
C754        C  0.39945733  0.84962923  0.90926169     0.28000
C755        C  0.44930370  0.78379718  0.98553997     0.28000
C756        C  0.47842802  0.79223611  0.95474699     0.28000
C757        C  0.36963407  0.79074987  0.95907859     0.36600
C758        C  0.40173558  0.77593117  0.98321785     0.36600
C759        C  0.44162411  0.83444288  0.89325000     0.36600
C760        C  0.47278430  0.81157342  0.91059228     0.36600
C761        C  0.36066379  0.85565617  0.92756938    -0.20900
C762        C  0.37993542  0.86803943  0.91348715    -0.20900
C763        C  0.47366084  0.78508109  0.99752300    -0.20900
C764        C  0.49184950  0.78805317  0.97803229    -0.20900
C765        C  0.35888948  0.77244286  0.97590900    -0.21900
C766        C  0.37922868  0.76324138  0.99142117    -0.21900
C767        C  0.45929107  0.82996798  0.87332050    -0.21900
C768        C  0.47911491  0.81574187  0.88428929    -0.21900
C769        C  0.35572538  0.81008652  0.94480764    -0.17300
C770        C  0.42077699  0.85220828  0.89205004    -0.17300
C771        C  0.48948561  0.80239064  0.93088553    -0.17300
C772        C  0.42481964  0.77905544  0.99844640    -0.17300
H773        H  0.34249783  0.86462936  0.93364889     0.15600
H774        H  0.37916867  0.88796273  0.90633225     0.15600
H775        H  0.47882751  0.78443570  0.01797169     0.15600
H776        H  0.51262162  0.78827218  0.98131208     0.15600
H777        H  0.33837381  0.76823817  0.97865670     0.13900
H778        H  0.37733534  0.75061586  0.00839275     0.13900
H779        H  0.45832931  0.83691364  0.85321185     0.13900
H780        H  0.49570435  0.80944747  0.87327900     0.13900
H781        H  0.40268221  0.80902345  0.91849582     0.27200
H782        H  0.43831914  0.78648677  0.94459694     0.27200
N783        N  0.39457750  0.81754722  0.11678279    -0.35600
N784        N  0.39243530  0.79577319  0.06375314    -0.56100
N785        N  0.44938541  0.79039829  0.06594466    -0.35600
N786        N  0.45083189  0.80914582  0.12061445    -0.56100
C787        C  0.36881488  0.81231948  0.11404795     0.28000
C788        C  0.39967086  0.82135816  0.14270104     0.28000
C789        C  0.44058106  0.77424573  0.04677593     0.28000
C790        C  0.47102180  0.77963104  0.07679849     0.28000
C791        C  0.37024234  0.81001901  0.06584919     0.36600
C792        C  0.40041257  0.79756934  0.03843028     0.36600
C793        C  0.44591524  0.83014954  0.13614406     0.36600
C794        C  0.47463632  0.81307773  0.10992601     0.36600
C795        C  0.35727334  0.81213146  0.13877167    -0.20900
C796        C  0.37683251  0.81755516  0.15691905    -0.20900
C797        C  0.45573400  0.75164268  0.04644178    -0.20900
C798        C  0.47471252  0.75484692  0.06602533    -0.20900
C799        C  0.36403514  0.82123787  0.04182430    -0.21900
C800        C  0.38369468  0.81412779  0.02469356    -0.21900
C801        C  0.46605332  0.84805882  0.13429248    -0.21900
C802        C  0.48445357  0.83710521  0.11774827    -0.21900
C803        C  0.35572460  0.81194080  0.08940308    -0.17300
C804        C  0.42347013  0.83232431  0.15219456    -0.17300
C805        C  0.48743259  0.79403256  0.09426334    -0.17300
C806        C  0.42163860  0.78258056  0.02819151    -0.17300
H807        H  0.33679148  0.80962480  0.14326898     0.15600
H808        H  0.37417720  0.81968562  0.17799724     0.15600
H809        H  0.45400347  0.73528727  0.03287275     0.15600
H810        H  0.49010316  0.74109013  0.07088818     0.15600
H811        H  0.34785498  0.83411739  0.03726414     0.13900
H812        H  0.38543093  0.82078761  0.00460775     0.13900
H813        H  0.46692074  0.86721483  0.14339454     0.13900
H814        H  0.50254362  0.84592088  0.11154497     0.13900
H815        H  0.40727273  0.82224210  0.10147639     0.27200
H816        H  0.44301902  0.80968682  0.06882047     0.27200
N817        N  0.62196049  0.15674278  0.89351501    -0.35600
N818        N  0.61126737  0.16601947  0.95397694    -0.56100
N819        N  0.55662353  0.18544241  0.95391899    -0.35600
N820        N  0.55650682  0.19003068  0.89889320    -0.56100
C821        C  0.63951285  0.17133004  0.90683171     0.28000
C822        C  0.60595697  0.17345775  0.88099062     0.28000
C823        C  0.56529809  0.19006699  0.97872622     0.28000
C824        C  0.53532366  0.20091120  0.94996351     0.28000
C825        C  0.63538560  0.15553898  0.95099403     0.36600
C826        C  0.60372466  0.16041269  0.97874435     0.36600
C827        C  0.56007250  0.18000716  0.87442819     0.36600
C828        C  0.53067972  0.19419116  0.90209431     0.36600
C829        C  0.63510764  0.19767957  0.90232204    -0.20900
C830        C  0.61351635  0.19907690  0.88603937    -0.20900
C831        C  0.55002321  0.20933361  0.99040141    -0.20900
C832        C  0.53088516  0.21581092  0.97251850    -0.20900
C833        C  0.64265087  0.14196259  0.97343508    -0.21900
C834        C  0.62220380  0.14445171  0.99079325    -0.21900
C835        C  0.53659618  0.18004109  0.86081792    -0.21900
C836        C  0.51800379  0.18971310  0.87815649    -0.21900
C837        C  0.65141665  0.16204158  0.92954450    -0.17300
C838        C  0.58296282  0.16566169  0.86812929    -0.17300
C839        C  0.51911084  0.19973908  0.92713849    -0.17300
C840        C  0.58416293  0.17472182  0.99218880    -0.17300
H841        H  0.64440417  0.21401809  0.91225627     0.15600
H842        H  0.60363035  0.21677175  0.87978521     0.15600
H843        H  0.55182100  0.21719933  0.01020921     0.15600
H844        H  0.51588336  0.23011375  0.97623321     0.15600
H845        H  0.66091883  0.13212093  0.97753534     0.13900
H846        H  0.62211695  0.13742886  0.01090686     0.13900
H847        H  0.53300291  0.17236333  0.84119405     0.13900
H848        H  0.49739161  0.19161349  0.87388689     0.13900
H849        H  0.61915511  0.13657392  0.89556201     0.27200
H850        H  0.56271932  0.16995037  0.94186914     0.27200
N851        N  0.61222707  0.18496901  0.11793998    -0.35600
N852        N  0.54436807  0.16268522  0.11602360    -0.56100
N853        N  0.55416823  0.17597101  0.05923491    -0.35600
N854        N  0.61185594  0.18058537  0.06118770    -0.56100
C855        C  0.60674031  0.17302391  0.14094896     0.28000
C856        C  0.63829563  0.18351283  0.11425753     0.28000
C857        C  0.52834249  0.17125115  0.06228722     0.28000
C858        C  0.56078763  0.16804521  0.03476368     0.28000
C859        C  0.56030239  0.17347409  0.13422764     0.36600
C860        C  0.52829548  0.18218598  0.10780864     0.36600
C861        C  0.63654013  0.18916484  0.06553902     0.36600
C862        C  0.60676534  0.18440493  0.03527443     0.36600
C863        C  0.62990487  0.16782563  0.15424595    -0.20900
C864        C  0.64998121  0.17442747  0.13725827    -0.20900
C865        C  0.51847204  0.15901355  0.04001596    -0.20900
C866        C  0.53908852  0.15669274  0.02265861    -0.20900
C867        C  0.55468644  0.19994376  0.13725785    -0.21900
C868        C  0.53377409  0.20534087  0.12088212    -0.21900
C869        C  0.64720929  0.19829025  0.04227703    -0.21900
C870        C  0.62823125  0.19580534  0.02326832    -0.21900
C871        C  0.58236010  0.16052706  0.14471128    -0.17300
C872        C  0.65071137  0.18613217  0.08941246    -0.17300
C873        C  0.58418041  0.17517944  0.02175287    -0.17300
C874        C  0.51408025  0.18052994  0.08418553    -0.17300
H875        H  0.63208933  0.15724755  0.17257874     0.15600
H876        H  0.67045261  0.17006169  0.14037964     0.15600
H877        H  0.49846735  0.15321740  0.03633894     0.15600
H878        H  0.53779461  0.14904218  0.00273186     0.15600
H879        H  0.56521771  0.21393870  0.14934111     0.13900
H880        H  0.52542190  0.22444360  0.11699824     0.13900
H881        H  0.66673105  0.20580776  0.03933514     0.13900
H882        H  0.63036170  0.20106791  0.00273344     0.13900
H883        H  0.59830315  0.19082553  0.10419796     0.27200
H884        H  0.56550415  0.18741895  0.07189755     0.27200
N885        N  0.39494937  0.18712765  0.90802036    -0.35600
N886        N  0.45105883  0.18272838  0.90903881    -0.56100
N887        N  0.45490488  0.20987442  0.96104440    -0.35600
N888        N  0.38233213  0.21306269  0.96876377    -0.56100
C889        C  0.40018282  0.17571635  0.88442938     0.28000
C890        C  0.36941317  0.19354218  0.90792653     0.28000
C891        C  0.47542437  0.21699783  0.94592942     0.28000
C892        C  0.44500471  0.23177318  0.97206007     0.28000
C893        C  0.44423904  0.16059408  0.89626337     0.36600
C894        C  0.47517340  0.17860559  0.91896622     0.36600
C895        C  0.36699090  0.21937598  0.94782374     0.36600
C896        C  0.39920302  0.23332445  0.97215898     0.36600
C897        C  0.37825558  0.17753281  0.86827322    -0.20900
C898        C  0.35851873  0.18806975  0.88348747    -0.20900
C899        C  0.47836064  0.24396061  0.94687155    -0.20900
C900        C  0.45853198  0.25345565  0.96304380    -0.20900
C901        C  0.46369018  0.14178702  0.89926302    -0.21900
C902        C  0.48363635  0.15346397  0.91331201    -0.21900
C903        C  0.37448651  0.24345365  0.93795915    -0.21900
C904        C  0.39477368  0.25226380  0.95325835    -0.21900
C905        C  0.42178743  0.15878951  0.88001272    -0.17300
C906        C  0.35583366  0.20046848  0.93100818    -0.17300
C907        C  0.42226367  0.23188467  0.98758522    -0.17300
C908        C  0.48973680  0.19895464  0.93045217    -0.17300
H909        H  0.37596008  0.16967617  0.84851740     0.15600
H910        H  0.33833123  0.19053734  0.87757124     0.15600
H911        H  0.49261305  0.25547190  0.93634456     0.15600
H912        H  0.45457778  0.27378180  0.96777108     0.15600
H913        H  0.46371468  0.12193363  0.89173812     0.13900
H914        H  0.50213926  0.14467243  0.91866974     0.13900
H915        H  0.36777997  0.25232067  0.91978640     0.13900
H916        H  0.40623527  0.26966344  0.94975288     0.13900
H917        H  0.40649349  0.18658600  0.92502348     0.27200
H918        H  0.44788875  0.19088262  0.96383791     0.27200
N919        N  0.38894035  0.16455820  0.09073470    -0.35600
N920        N  0.39107524  0.19709780  0.04423114    -0.56100
N921        N  0.44822269  0.20019464  0.05247518    -0.35600
N922        N  0.44424353  0.16763405  0.09850493    -0.56100
C923        C  0.36571668  0.16174096  0.07881679     0.28000
C924        C  0.39402205  0.14188105  0.10324071     0.28000
C925        C  0.44622702  0.21352955  0.02927991     0.28000
C926        C  0.47395591  0.19857325  0.05966080     0.28000
C927        C  0.36576134  0.20051851  0.05134816     0.36600
C928        C  0.39743683  0.21699496  0.02810111     0.36600
C929        C  0.43607811  0.15591052  0.12067977     0.36600
C930        C  0.46863521  0.17620703  0.10300626     0.36600
C931        C  0.35592429  0.13684002  0.08322739    -0.20900
C932        C  0.37414150  0.12405028  0.09850108    -0.20900
C933        C  0.47132956  0.22176344  0.02275112    -0.20900
C934        C  0.48842253  0.21234557  0.04146779    -0.20900
C935        C  0.35570876  0.22281448  0.03978318    -0.21900
C936        C  0.37580044  0.23338664  0.02519948    -0.21900
C937        C  0.45489561  0.15776320  0.14012087    -0.21900
C938        C  0.47563502  0.17043140  0.12897344    -0.21900
C939        C  0.35216031  0.18261015  0.06736473    -0.17300
C940        C  0.41493769  0.13852738  0.12081098    -0.17300
C941        C  0.48486465  0.18600970  0.08268319    -0.17300
C942        C  0.42214957  0.21973154  0.01525207    -0.17300
H943        H  0.33736743  0.12902379  0.07663168     0.15600
H944        H  0.37239179  0.10437895  0.10612798     0.15600
H945        H  0.47743637  0.23494038  0.00756848     0.15600
H946        H  0.50914298  0.21640593  0.04213925     0.15600
H947        H  0.33618455  0.23075464  0.04176920     0.13900
H948        H  0.37466621  0.25143842  0.01417094     0.13900
H949        H  0.45437179  0.14936585  0.15968426     0.13900
H950        H  0.49341818  0.17446176  0.13956072     0.13900
H951        H  0.39873179  0.18231372  0.09315974     0.27200
H952        H  0.43264586  0.19260483  0.06274395     0.27200
N953        N  0.61340636  0.88269912  0.17867502    -0.35600
N954        N  0.55708253  0.87840889  0.19000037    -0.56100
N955        N  0.55787344  0.93644021  0.19739643    -0.35600
N956        N  0.61395377  0.93797859  0.18894796    -0.56100
C957        C  0.60865958  0.85673179  0.17817561     0.28000
C958        C  0.63913848  0.88640707  0.18357755     0.28000
C959        C  0.53571195  0.92933020  0.21002010     0.28000
C960        C  0.56509210  0.96024635  0.20645245     0.28000
C961        C  0.56217389  0.86194836  0.16953534     0.36600
C962        C  0.53322099  0.88895111  0.18522022     0.36600
C963        C  0.63714344  0.93394026  0.17704937     0.36600
C964        C  0.60660729  0.96260471  0.18301229     0.36600
C965        C  0.63171420  0.84341824  0.18383454    -0.20900
C966        C  0.65101320  0.86222310  0.18723124    -0.20900
C967        C  0.52961789  0.94873441  0.22841362    -0.20900
C968        C  0.54776567  0.96855769  0.22561012    -0.20900
C969        C  0.54223052  0.86337322  0.15107520    -0.21900
C970        C  0.52377238  0.88041115  0.16111122    -0.21900
C971        C  0.64462537  0.95621735  0.16347189    -0.21900
C972        C  0.62487017  0.97416493  0.16670102    -0.21900
C973        C  0.58507158  0.84619752  0.16776161    -0.17300
C974        C  0.65187717  0.91079844  0.18020399    -0.17300
C975        C  0.58522737  0.97522193  0.19505920    -0.17300
C976        C  0.52065219  0.90704730  0.20228390    -0.17300
H977        H  0.63466534  0.82241868  0.18402406     0.15600
H978        H  0.67160428  0.85840666  0.19029023     0.15600
H979        H  0.51428255  0.94901601  0.24275790     0.15600
H980        H  0.54820815  0.98690795  0.23641749     0.15600
H981        H  0.54172522  0.85405360  0.13189999     0.13900
H982        H  0.50611742  0.88688127  0.15140774     0.13900
H983        H  0.66209511  0.95940477  0.15205118     0.13900
H984        H  0.62445911  0.99372515  0.15859830     0.13900
H985        H  0.60040971  0.89672053  0.17152962     0.27200
H986        H  0.56590370  0.92716764  0.18088816     0.27200
N987        N  0.60885576  0.09654394  0.16907855    -0.35600
N988        N  0.55308527  0.09460905  0.16248423    -0.56100
N989        N  0.55419812  0.04074391  0.18118420    -0.35600
N990        N  0.60867491  0.04367847  0.18890014    -0.56100
C991        C  0.60278863  0.11484373  0.15082138     0.28000
C992        C  0.63291474  0.08717342  0.16329441     0.28000
C993        C  0.53128122  0.04308080  0.16830114     0.28000
C994        C  0.56086825  0.01514214  0.18051291     0.28000
C995        C  0.55727085  0.12075063  0.16243126     0.36600
C996        C  0.52797706  0.09082636  0.16949509     0.36600
C997        C  0.63372102  0.05006323  0.19381027     0.36600
C998        C  0.60422080  0.02046470  0.20057389     0.36600
C999        C  0.62254079  0.11582441  0.13215591    -0.20900
C1000       C  0.64202558  0.09902658  0.14056055    -0.20900
C1001       C  0.52334067  0.01885687  0.15883658    -0.20900
C1002       C  0.54217305  0.00113590  0.16644001    -0.20900
C1003       C  0.53470195  0.13375184  0.17028467    -0.21900
C1004       C  0.51604148  0.11474119  0.17454352    -0.21900
C1005       C  0.64524015  0.03118021  0.20967490    -0.21900
C1006       C  0.62636792  0.01252004  0.21425212    -0.21900
C1007       C  0.58081222  0.13185499  0.15291231    -0.17300
C1008       C  0.64689720  0.06938281  0.17931380    -0.17300
C1009       C  0.58281875  0.00438465  0.19351043    -0.17300
C1010       C  0.51591690  0.06590067  0.16896905    -0.17300
H1011       H  0.62321183  0.12796734  0.11474943     0.15600
H1012       H  0.66057910  0.09586662  0.13086685     0.15600
H1013       H  0.50542949  0.01435885  0.14836752     0.15600
H1014       H  0.54180112  0.98031005  0.16240075     0.15600
H1015       H  0.53173821  0.15461412  0.17260431     0.13900
H1016       H  0.49600657  0.11817260  0.18041909     0.13900
H1017       H  0.66551655  0.02992151  0.21565198     0.13900
H1018       H  0.62933312  0.99412864  0.22437298     0.13900
H1019       H  0.59842311  0.09288611  0.18635441     0.27200
H1020       H  0.56281928  0.05534161  0.19275130     0.27200
N1021       N  0.38852827  0.87801779  0.16500975    -0.35600
N1022       N  0.40147300  0.93678719  0.17577051    -0.56100
N1023       N  0.45968294  0.93745724  0.19400489    -0.35600
N1024       N  0.45220463  0.87884340  0.19967959    -0.56100
C1025       C  0.37069894  0.89232896  0.17829231     0.28000
C1026       C  0.40197442  0.86430979  0.18309066     0.28000
C1027       C  0.44473451  0.95554640  0.20662574     0.28000
C1028       C  0.47537816  0.92636315  0.21239507     0.28000
C1029       C  0.37807523  0.93586671  0.16331860     0.36600
C1030       C  0.40976571  0.96174541  0.17452909     0.36600
C1031       C  0.44683261  0.85424486  0.19141940     0.36600
C1032       C  0.47809770  0.87994556  0.20450834     0.36600
C1033       C  0.37255666  0.88747430  0.20509043    -0.20900
C1034       C  0.39285888  0.86993991  0.20820273    -0.20900
C1035       C  0.44965735  0.95478530  0.23345327    -0.20900
C1036       C  0.46819155  0.93539946  0.23719956    -0.20900
C1037       C  0.37264910  0.95975589  0.15171557    -0.21900
C1038       C  0.39322178  0.97600076  0.15816479    -0.21900
C1039       C  0.46898950  0.83874140  0.19322962    -0.21900
C1040       C  0.48877928  0.85493695  0.20214778    -0.21900
C1041       C  0.36036118  0.91539231  0.16815281    -0.17300
C1042       C  0.42377304  0.84880674  0.17710278    -0.17300
C1043       C  0.49137808  0.90419942  0.20775301    -0.17300
C1044       C  0.42659816  0.97227645  0.19408464    -0.17300
H1045       H  0.36246606  0.89777057  0.22079561     0.15600
H1046       H  0.40062539  0.86278067  0.22670460     0.15600
H1047       H  0.44001150  0.96614986  0.24869934     0.15600
H1048       H  0.47544271  0.92850545  0.25601925     0.15600
H1049       H  0.35511790  0.96553721  0.14129350     0.13900
H1050       H  0.39420161  0.99671947  0.15387950     0.13900
H1051       H  0.47101507  0.81845149  0.18723500     0.13900
H1052       H  0.50885360  0.84902487  0.20518351     0.13900
H1053       H  0.39298980  0.87956368  0.14495138     0.27200
H1054       H  0.45961188  0.93325257  0.17379313     0.27200
N1055       N  0.39267881  0.08607496  0.16742059    -0.35600
N1056       N  0.39571813  0.03904784  0.19976599    -0.56100
N1057       N  0.45032995  0.03539903  0.18300899    -0.35600
N1058       N  0.44697861  0.08444604  0.15669187    -0.56100
C1059       C  0.37034519  0.08777912  0.18131053     0.28000
C1060       C  0.39656891  0.10965596  0.15612923     0.28000
C1061       C  0.44705765  0.01613598  0.20068871     0.28000
C1062       C  0.47471021  0.04505326  0.18651454     0.28000
C1063       C  0.36952607  0.04265880  0.19931625     0.36600
C1064       C  0.39977499  0.01325497  0.20438844     0.36600
C1065       C  0.43904692  0.09920466  0.13638373     0.36600
C1066       C  0.47167468  0.07728411  0.15143858     0.36600
C1067       C  0.35995927  0.11283070  0.17907091    -0.20900
C1068       C  0.37670655  0.12677338  0.16328842    -0.20900
C1069       C  0.46941586  0.01333149  0.21582840    -0.20900
C1070       C  0.48675195  0.03200917  0.20722376    -0.20900
C1071       C  0.35694633  0.01952264  0.20566880    -0.21900
C1072       C  0.37617399  0.00089497  0.20907873    -0.21900
C1073       C  0.45869771  0.10081256  0.11757415    -0.21900
C1074       C  0.47978487  0.08734538  0.12756239    -0.21900
C1075       C  0.35696927  0.06617631  0.19167874    -0.17300
C1076       C  0.41643801  0.11486034  0.13767774    -0.17300
C1077       C  0.48685753  0.06309861  0.16930851    -0.17300
C1078       C  0.42445663  0.00072005  0.20207934    -0.17300
H1079       H  0.34167493  0.11993078  0.18713481     0.15600
H1080       H  0.37403859  0.14683214  0.15699348     0.15600
H1081       H  0.47286993  0.99993442  0.23184966     0.15600
H1082       H  0.50622341  0.03511685  0.21496026     0.15600
H1083       H  0.33610845  0.01616406  0.20669828     0.13900
H1084       H  0.37311221  0.98037285  0.21330740     0.13900
H1085       H  0.45838344  0.11169000  0.09930978     0.13900
H1086       H  0.49878011  0.08523046  0.11845105     0.13900
H1087       H  0.40236579  0.06876105  0.16251023     0.27200
H1088       H  0.43742313  0.03931526  0.16755845     0.27200
N1089       N  0.90232841  0.83168354  0.61069002    -0.35600
N1090       N  0.95443655  0.80702396  0.61068793    -0.56100
N1091       N  0.95475871  0.80787287  0.55477605    -0.35600
N1092       N  0.89296611  0.84284377  0.54419703    -0.56100
C1093       C  0.91196189  0.83686332  0.63498483     0.28000
C1094       C  0.88379331  0.85005776  0.60533707     0.28000
C1095       C  0.98003476  0.80059480  0.55816818     0.28000
C1096       C  0.94985754  0.80949962  0.52871932     0.28000
C1097       C  0.94846241  0.80473117  0.63643168     0.36600
C1098       C  0.97738815  0.79456447  0.60646202     0.36600
C1099       C  0.87472085  0.83421437  0.56142598     0.36600
C1100       C  0.90463993  0.82112298  0.53441661     0.36600
C1101       C  0.90029151  0.85945725  0.64482980    -0.20900
C1102       C  0.88328502  0.86827858  0.62575669    -0.20900
C1103       C  0.99084842  0.79668841  0.53325969    -0.20900
C1104       C  0.97161442  0.80139141  0.51488736    -0.20900
C1105       C  0.96751520  0.78981563  0.64889844    -0.21900
C1106       C  0.98584041  0.78337272  0.62989379    -0.21900
C1107       C  0.87480944  0.80710041  0.56222528    -0.21900
C1108       C  0.89425219  0.79879659  0.54551331    -0.21900
C1109       C  0.92916090  0.82022613  0.64909985    -0.17300
C1110       C  0.86672097  0.84943619  0.58302000    -0.17300
C1111       C  0.92697951  0.82130692  0.51844456    -0.17300
C1112       C  0.99271753  0.79777107  0.58323120    -0.17300
H1113       H  0.90363490  0.86890350  0.66367851     0.15600
H1114       H  0.87161272  0.88591438  0.62722065     0.15600
H1115       H  0.01012471  0.79081550  0.52778549     0.15600
H1116       H  0.97376750  0.79955097  0.49376431     0.15600
H1117       H  0.96912398  0.78569414  0.66976760     0.13900
H1118       H  0.00414517  0.77323051  0.63325865     0.13900
H1119       H  0.86423361  0.79491836  0.57593541     0.13900
H1120       H  0.90082985  0.77881755  0.54258366     0.13900
H1121       H  0.90650949  0.81486249  0.59976390     0.27200
H1122       H  0.94170754  0.81469225  0.56883257     0.27200
N1123       N  0.11065324  0.83284022  0.61892086    -0.35600
N1124       N  0.11589319  0.82612492  0.56302429    -0.56100
N1125       N  0.05880552  0.81227114  0.55846483    -0.35600
N1126       N  0.05673023  0.81587811  0.61601573    -0.56100
C1127       C  0.13679918  0.83324586  0.61537253     0.28000
C1128       C  0.10585586  0.82564074  0.64401532     0.28000
C1129       C  0.07269326  0.80016672  0.53934696     0.28000
C1130       C  0.04083698  0.79528292  0.56745661     0.28000
C1131       C  0.13319678  0.84500685  0.56932223     0.36600
C1132       C  0.10710086  0.83150632  0.53857433     0.36600
C1133       C  0.05826702  0.82823137  0.63953749     0.36600
C1134       C  0.03162470  0.81761995  0.60795485     0.36600
C1135       C  0.14900379  0.82538847  0.63854115    -0.20900
C1136       C  0.12939802  0.82088804  0.65678398    -0.20900
C1137       C  0.06498368  0.77417646  0.53760484    -0.20900
C1138       C  0.04443323  0.77111213  0.55533112    -0.20900
C1139       C  0.13429077  0.86344987  0.54935953    -0.21900
C1140       C  0.11781253  0.85471757  0.52963407    -0.21900
C1141       C  0.03411306  0.83866193  0.64623990    -0.21900
C1142       C  0.01745974  0.83279639  0.62569819    -0.21900
C1143       C  0.14863428  0.84385375  0.59247045    -0.17300
C1144       C  0.08079124  0.82717311  0.65558293    -0.17300
C1145       C  0.02196229  0.80258527  0.58644249    -0.17300
C1146       C  0.09158882  0.81359259  0.52424466    -0.17300
H1147       H  0.16977440  0.82394798  0.64228819     0.15600
H1148       H  0.13227842  0.81562100  0.67723467     0.15600
H1149       H  0.07288024  0.75929006  0.52455256     0.15600
H1150       H  0.03327904  0.75347443  0.55864545     0.15600
H1151       H  0.14580857  0.88116243  0.54894405     0.13900
H1152       H  0.11439523  0.86409161  0.51082992     0.13900
H1153       H  0.02881757  0.84947233  0.66383629     0.13900
H1154       H  0.99713063  0.83847072  0.62457459     0.13900
H1155       H  0.09686735  0.84071328  0.60596371     0.27200
H1156       H  0.06003591  0.83210198  0.56362508     0.27200
N1157       N  0.90579269  0.84370549  0.39405648    -0.35600
N1158       N  0.96119157  0.83686200  0.39873038    -0.56100
N1159       N  0.95725564  0.83668980  0.45490730     0.07600
N1160       N  0.90345838  0.84473005  0.45134079    -0.56100
C1161       C  0.91507095  0.84835389  0.36970656     0.28000
C1162       C  0.88698103  0.86173238  0.39891050     0.28000
C1163       C  0.98175964  0.84585316  0.45154934     0.28000
C1164       C  0.94972852  0.84257978  0.47973644     0.28000
C1165       C  0.95777814  0.82786345  0.37392569     0.36600
C1166       C  0.98568365  0.83034401  0.40589361     0.36600
C1167       C  0.87849783  0.84664918  0.44348466     0.36600
C1168       C  0.90348276  0.83359450  0.47536024     0.36600
C1169       C  0.90202427  0.86929016  0.35850424    -0.20900
C1170       C  0.88492846  0.87843115  0.37739688    -0.20900
C1171       C  0.98981722  0.85837906  0.47457273    -0.20900
C1172       C  0.96952813  0.85619394  0.49249880    -0.20900
C1173       C  0.98007803  0.81507168  0.36522986    -0.21900
C1174       C  0.99782286  0.81646175  0.38569718    -0.21900
C1175       C  0.86205097  0.83660787  0.46239431    -0.21900
C1176       C  0.87792690  0.82732975  0.48227128    -0.21900
C1177       C  0.93618095  0.83493351  0.35839017    -0.17300
C1178       C  0.87119850  0.86191372  0.42185097    -0.17300
C1179       C  0.92643334  0.83281320  0.49110314    -0.17300
C1180       C  0.99748372  0.83977772  0.42928973    -0.17300
H1181       H  0.90560747  0.87802998  0.33944292     0.15600
H1182       H  0.87276020  0.89562552  0.37534846     0.15600
H1183       H  0.00868440  0.86712916  0.47842220     0.15600
H1184       H  0.96962500  0.86295468  0.51278607     0.15600
H1185       H  0.98350584  0.80659969  0.34590783     0.13900
H1186       H  0.01761925  0.80895482  0.38540190     0.13900
H1187       H  0.84090750  0.83646852  0.46205803     0.13900
H1188       H  0.87064090  0.81812962  0.49979906     0.13900
H1189       H  0.91117858  0.82790667  0.40590521     0.27200
H1190       H  0.94742657  0.82367928  0.44243870     0.27200
N1191       N  0.11981164  0.84036080  0.40096574    -0.35600
N1192       N  0.06474486  0.84352634  0.40301048    -0.56100
N1193       N  0.06489411  0.83104123  0.45888982    -0.35600
N1194       N  0.12106827  0.82477916  0.45660806    -0.56100
C1195       C  0.11326396  0.83337030  0.37588807     0.28000
C1196       C  0.14397597  0.83098469  0.40566094     0.28000
C1197       C  0.03985007  0.82729946  0.45094774     0.28000
C1198       C  0.06941057  0.81439551  0.47918725     0.28000
C1199       C  0.06898941  0.85117001  0.37795373     0.36600
C1200       C  0.04092871  0.85240291  0.40991012     0.36600
C1201       C  0.14710715  0.82848769  0.45321878     0.36600
C1202       C  0.11764418  0.81674856  0.48177467     0.36600
C1203       C  0.13366535  0.81927149  0.36468852    -0.20900
C1204       C  0.15287457  0.81742945  0.38370777    -0.20900
C1205       C  0.02859896  0.80773945  0.46564724    -0.20900
C1206       C  0.04713088  0.79957564  0.48329677    -0.20900
C1207       C  0.04792215  0.86581137  0.36898638    -0.21900
C1208       C  0.03040176  0.86715878  0.38954999    -0.21900
C1209       C  0.16045575  0.82096408  0.47571589    -0.21900
C1210       C  0.14189359  0.81324528  0.49364920    -0.21900
C1211       C  0.09003075  0.84133286  0.36290242    -0.17300
C1212       C  0.15853964  0.83589059  0.42892030    -0.17300
C1213       C  0.09288676  0.81323720  0.49423677    -0.17300
C1214       C  0.02676680  0.84139696  0.43094937    -0.17300
H1215       H  0.13485330  0.81112390  0.34499609     0.15600
H1216       H  0.17118179  0.80699551  0.38174449     0.15600
H1217       H  0.00934854  0.79940684  0.46318218     0.15600
H1218       H  0.04437595  0.78305812  0.49579191     0.15600
H1219       H  0.04486915  0.87405218  0.34962965     0.13900
H1220       H  0.01113258  0.87591961  0.38871407     0.13900
H1221       H  0.18132794  0.81932852  0.47841928     0.13900
H1222       H  0.14588443  0.80565674  0.51314618     0.13900
H1223       H  0.10979558  0.85315108  0.41353216     0.27200
H1224       H  0.07729317  0.84584362  0.45241137     0.27200
N1225       N  0.81530409  0.89387004  0.61181105    -0.35600
N1226       N  0.78172700  0.93934545  0.61739908    -0.56100
N1227       N  0.79238843  0.96071661  0.54835258    -0.35600
N1228       N  0.81916362  0.89880107  0.55498637    -0.56100
C1229       C  0.80738083  0.89165117  0.63726250     0.28000
C1230       C  0.82773960  0.87118742  0.60532396     0.28000
C1231       C  0.77477694  0.96268544  0.56808856     0.28000
C1232       C  0.78592721  0.93881469  0.53479953     0.28000
C1233       C  0.78434403  0.93453455  0.64326082     0.36600
C1234       C  0.77438596  0.96467294  0.61500960     0.36600
C1235       C  0.83210719  0.87584240  0.55746713     0.36600
C1236       C  0.81325451  0.90146016  0.52912244     0.36600
C1237       C  0.81398231  0.86701650  0.64658687    -0.20900
C1238       C  0.82647513  0.85399874  0.62636769    -0.20900
C1239       C  0.75632930  0.94291186  0.56596418    -0.20900
C1240       C  0.76372845  0.92751822  0.54514294    -0.20900
C1241       C  0.77611418  0.95633703  0.65768759    -0.21900
C1242       C  0.76950928  0.97543525  0.63963893    -0.21900
C1243       C  0.83258004  0.86294712  0.53325160    -0.21900
C1244       C  0.82033061  0.87903214  0.51542434    -0.21900
C1245       C  0.79706547  0.91206906  0.65336647    -0.17300
C1246       C  0.84209084  0.86632526  0.58175902    -0.17300
C1247       C  0.80298930  0.92500159  0.51854719    -0.17300
C1248       C  0.77819187  0.97801352  0.59095620    -0.17300
H1249       H  0.81066905  0.85946179  0.66620814     0.15600
H1250       H  0.83464398  0.83443572  0.62733374     0.15600
H1251       H  0.74063057  0.93875371  0.57957583     0.15600
H1252       H  0.75508001  0.90901182  0.53939649     0.15600
H1253       H  0.77658061  0.95904988  0.67885848     0.13900
H1254       H  0.76425331  0.99552750  0.64413342     0.13900
H1255       H  0.83916733  0.84333252  0.52879611     0.13900
H1256       H  0.81667284  0.87440569  0.49489723     0.13900
H1257       H  0.81576099  0.91109763  0.60094985     0.27200
H1258       H  0.80983062  0.97114928  0.54668399     0.27200
N1259       N  0.83108864  0.09050896  0.61414491    -0.35600
N1260       N  0.80514443  0.04080995  0.61731104    -0.56100
N1261       N  0.80334257  0.03997454  0.55944195    -0.35600
N1262       N  0.82875783  0.09163509  0.55844829    -0.56100
C1263       C  0.82436116  0.09039433  0.63981827     0.28000
C1264       C  0.84029794  0.11445177  0.60842200     0.28000
C1265       C  0.78664467  0.02094735  0.56694345     0.28000
C1266       C  0.79484653  0.05005530  0.53618007     0.28000
C1267       C  0.81735344  0.04298040  0.64087236     0.36600
C1268       C  0.80529094  0.01513492  0.61085677     0.36600
C1269       C  0.85120882  0.10473784  0.56270192     0.36600
C1270       C  0.83040161  0.08137979  0.53403092     0.36600
C1271       C  0.82797655  0.11525167  0.65045679    -0.20900
C1272       C  0.83808421  0.13056303  0.63047069    -0.20900
C1273       C  0.76694509  0.01875896  0.54830192    -0.20900
C1274       C  0.77189368  0.03720628  0.52906640    -0.20900
C1275       C  0.82539286  0.01856828  0.64957476    -0.21900
C1276       C  0.81873125  0.00104871  0.62994583    -0.21900
C1277       C  0.86729105  0.10282120  0.54077823    -0.21900
C1278       C  0.85393178  0.08802146  0.52243957    -0.21900
C1279       C  0.82114858  0.06705092  0.65409088    -0.17300
C1280       C  0.85632588  0.11867773  0.58622871    -0.17300
C1281       C  0.80905286  0.06927245  0.52156249    -0.17300
C1282       C  0.79040023  0.00495935  0.58955559    -0.17300
H1283       H  0.82593624  0.12106523  0.67092580     0.15600
H1284       H  0.84541512  0.15032803  0.63261290     0.15600
H1285       H  0.75046437  0.00555685  0.54859063     0.15600
H1286       H  0.75947070  0.04035546  0.51217458     0.15600
H1287       H  0.83572526  0.01389124  0.66760061     0.13900
H1288       H  0.82274087  0.98022725  0.63009532     0.13900
H1289       H  0.88649882  0.11115023  0.53814908     0.13900
H1290       H  0.86049530  0.08301388  0.50275081     0.13900
H1291       H  0.83486638  0.07385829  0.60279060     0.27200
H1292       H  0.82107115  0.04412341  0.56873906     0.27200
N1293       N  0.82330570  0.90957088  0.39827185    -0.35600
N1294       N  0.82466179  0.90958788  0.45367686    -0.56100
N1295       N  0.80115404  0.96269818  0.45314749    -0.35600
N1296       N  0.79950730  0.96052900  0.39507431    -0.56100
C1297       C  0.83141013  0.88515868  0.40397226     0.28000
C1298       C  0.81510133  0.90965300  0.37307268     0.28000
C1299       C  0.79343353  0.95270530  0.47658910     0.28000
C1300       C  0.78404194  0.98151792  0.44598487     0.28000
C1301       C  0.84677475  0.89653058  0.44770610     0.36600
C1302       C  0.82888262  0.92165442  0.47688138     0.36600
C1303       C  0.81126363  0.95743877  0.37134004     0.36600
C1304       C  0.80071263  0.98628337  0.40131467     0.36600
C1305       C  0.82643628  0.86865976  0.38274664    -0.20900
C1306       C  0.81621923  0.88427725  0.36299057    -0.20900
C1307       C  0.77040636  0.96523349  0.48414261    -0.20900
C1308       C  0.76472381  0.98361398  0.46496927    -0.20900
C1309       C  0.86548979  0.90073975  0.46718830    -0.21900
C1310       C  0.85389959  0.91657872  0.48599451    -0.21900
C1311       C  0.82012732  0.98137698  0.36237346    -0.21900
C1312       C  0.81435241  0.99943524  0.38184187    -0.21900
C1313       C  0.84883233  0.88053375  0.42494804    -0.17300
C1314       C  0.81398085  0.93290062  0.35835385    -0.17300
C1315       C  0.78725882  0.99731263  0.42331386    -0.17300
C1316       C  0.80847984  0.93377753  0.49070138    -0.17300
H1317       H  0.83228080  0.84835052  0.38070868     0.15600
H1318       H  0.81263380  0.87807675  0.34286037     0.15600
H1319       H  0.75843521  0.96188993  0.50124486     0.15600
H1320       H  0.74800703  0.99663974  0.46488931     0.15600
H1321       H  0.88527708  0.89331790  0.46791839     0.13900
H1322       H  0.86251838  0.92317245  0.50438809     0.13900
H1323       H  0.83051905  0.98541343  0.34430814     0.13900
H1324       H  0.81984791  0.01984048  0.38160741     0.13900
H1325       H  0.82903089  0.92620960  0.40878574     0.27200
H1326       H  0.81864966  0.95857315  0.44339810     0.27200
N1327       N  0.78873557  0.06176581  0.39693137    -0.35600
N1328       N  0.79051011  0.04161216  0.46529579    -0.56100
N1329       N  0.82093467  0.10405620  0.45854280    -0.35600
N1330       N  0.82278634  0.10801840  0.40090725    -0.56100
C1331       C  0.77507308  0.03935916  0.39916096     0.28000
C1332       C  0.79109617  0.06717118  0.37107929     0.28000
C1333       C  0.81171997  0.10196698  0.48336873     0.28000
C1334       C  0.83117098  0.12835103  0.45564309     0.28000
C1335       C  0.77238481  0.03967538  0.44584437     0.36600
C1336       C  0.78472013  0.06430373  0.47800243     0.36600
C1337       C  0.82863155  0.09770538  0.37685175     0.36600
C1338       C  0.84470840  0.12009035  0.40989987     0.36600
C1339       C  0.76647898  0.03117382  0.37460254    -0.20900
C1340       C  0.77637373  0.04899689  0.35673121    -0.20900
C1341       C  0.81517531  0.12552279  0.49656699    -0.20900
C1342       C  0.82722078  0.14229381  0.47902885    -0.20900
C1343       C  0.75483662  0.06041989  0.44707480    -0.21900
C1344       C  0.76296355  0.07623974  0.46718505    -0.21900
C1345       C  0.85433983  0.10339987  0.37058034    -0.21900
C1346       C  0.86469984  0.11663309  0.39181156    -0.21900
C1347       C  0.77600059  0.02478048  0.42266406    -0.17300
C1348       C  0.81106336  0.08322878  0.36053483    -0.17300
C1349       C  0.84580879  0.13621401  0.43304678    -0.17300
C1350       C  0.80231013  0.07803712  0.49387623    -0.17300
H1351       H  0.75639026  0.01312766  0.36992301     0.15600
H1352       H  0.77537194  0.04682780  0.33550200     0.15600
H1353       H  0.80974752  0.13008915  0.51670903     0.15600
H1354       H  0.83232847  0.16230125  0.48354753     0.15600
H1355       H  0.73953419  0.06498224  0.43301765     0.13900
H1356       H  0.75513036  0.09537682  0.47212097     0.13900
H1357       H  0.86505768  0.09797935  0.35303437     0.13900
H1358       H  0.88467109  0.12331279  0.39351278     0.13900
H1359       H  0.79946130  0.06990164  0.41233994     0.27200
H1360       H  0.82285364  0.08828853  0.44552822     0.27200
N1361       N  0.17913414  0.93975060  0.61654999    -0.35600
N1362       N  0.19242353  0.93735137  0.55715593    -0.56100
N1363       N  0.20017423  0.88266798  0.56339515    -0.35600
N1364       N  0.16849838  0.88168885  0.63153614    -0.56100
C1365       C  0.17146473  0.96290063  0.60635178     0.28000
C1366       C  0.16848346  0.93790233  0.64098019     0.28000
C1367       C  0.20325649  0.88348826  0.53681001     0.28000
C1368       C  0.19021276  0.85905895  0.56983625     0.28000
C1369       C  0.19750990  0.96236156  0.56494948     0.36600
C1370       C  0.20808431  0.93187758  0.53601954     0.36600
C1371       C  0.18366501  0.89423800  0.64921847     0.36600
C1372       C  0.18466492  0.86769235  0.61616697     0.36600
C1373       C  0.15407710  0.97494538  0.62360608    -0.20900
C1374       C  0.15243500  0.95933117  0.64562719    -0.20900
C1375       C  0.19818325  0.85825524  0.52716848    -0.20900
C1376       C  0.18952085  0.84323682  0.54782943    -0.20900
C1377       C  0.21622309  0.97300492  0.54871601    -0.21900
C1378       C  0.22309802  0.95386940  0.53082888    -0.21900
C1379       C  0.20968014  0.88774360  0.64548815    -0.21900
C1380       C  0.21037235  0.87097623  0.62407127    -0.21900
C1381       C  0.18510387  0.97603340  0.58614080    -0.17300
C1382       C  0.17581284  0.91832294  0.65925663    -0.17300
C1383       C  0.17601347  0.85501728  0.59326316    -0.17300
C1384       C  0.20903836  0.90701051  0.52216493    -0.17300
H1385       H  0.14530141  0.99415125  0.62152301     0.15600
H1386       H  0.14119854  0.96391187  0.66306785     0.15600
H1387       H  0.19881772  0.85052825  0.50760527     0.15600
H1388       H  0.18175768  0.82357780  0.54643559     0.15600
H1389       H  0.22505891  0.99215738  0.55044208     0.13900
H1390       H  0.23915472  0.95581203  0.51747808     0.13900
H1391       H  0.22641671  0.89678526  0.65489053     0.13900
H1392       H  0.22766753  0.86324726  0.61451429     0.13900
H1393       H  0.19419301  0.92800918  0.60921289     0.27200
H1394       H  0.20325588  0.89775079  0.57687687     0.27200
N1395       N  0.18445770  0.09714396  0.62274134    -0.35600
N1396       N  0.18460600  0.10089966  0.56579398    -0.56100
N1397       N  0.18842422  0.04596354  0.56270580    -0.35600
N1398       N  0.19411779  0.04235552  0.61897297    -0.56100
C1399       C  0.18169401  0.12309397  0.61925784     0.28000
C1400       C  0.19381876  0.09347514  0.64733475     0.28000
C1401       C  0.17865568  0.05340865  0.53905577     0.28000
C1402       C  0.17980050  0.02139251  0.56734028     0.28000
C1403       C  0.18193266  0.12623278  0.57267400     0.36600
C1404       C  0.18933788  0.09983051  0.53964953     0.36600
C1405       C  0.19897769  0.04505454  0.64507339     0.36600
C1406       C  0.19738972  0.01682708  0.61261487     0.36600
C1407       C  0.19016962  0.13660252  0.64137362    -0.20900
C1408       C  0.19760800  0.11777711  0.65939350    -0.20900
C1409       C  0.16277507  0.03377452  0.52895995    -0.20900
C1410       C  0.16366441  0.01343292  0.54676320    -0.20900
C1411       C  0.18606801  0.14201092  0.55110570    -0.21900
C1412       C  0.19137312  0.12541391  0.53020061    -0.21900
C1413       C  0.20665051  0.02115818  0.65536760    -0.21900
C1414       C  0.20632241  0.00341170  0.63467570    -0.21900
C1415       C  0.17034442  0.13389048  0.59664161    -0.17300
C1416       C  0.19634172  0.06880182  0.65960990    -0.17300
C1417       C  0.18816291  0.00541835  0.58856285    -0.17300
C1418       C  0.18712416  0.07586051  0.52515158    -0.17300
H1419       H  0.19013267  0.15761005  0.64440599     0.15600
H1420       H  0.20471579  0.12175074  0.67911016     0.15600
H1421       H  0.15277420  0.03365758  0.51010619     0.15600
H1422       H  0.15415675  0.99465234  0.54444877     0.15600
H1423       H  0.18388507  0.16309022  0.55023297     0.13900
H1424       H  0.19414100  0.13239585  0.51044689     0.13900
H1425       H  0.21202065  0.01700175  0.67559718     0.13900
H1426       H  0.21090249  0.98277204  0.63614206     0.13900
H1427       H  0.17640121  0.08314293  0.61018589     0.27200
H1428       H  0.20318611  0.05563768  0.57309882     0.27200
N1429       N  0.18422005  0.88383090  0.39835928    -0.35600
N1430       N  0.19257632  0.93883460  0.40158138    -0.56100
N1431       N  0.20445806  0.93947226  0.46042076    -0.35600
N1432       N  0.19332431  0.87269943  0.46581827    -0.56100
C1433       C  0.19043541  0.88987037  0.37325309     0.28000
C1434       C  0.19203213  0.85909042  0.40261035     0.28000
C1435       C  0.21759475  0.95806381  0.44696984     0.28000
C1436       C  0.22148506  0.92835685  0.47741131     0.28000
C1437       C  0.18016789  0.93622041  0.37818327     0.36600
C1438       C  0.18914263  0.96382479  0.40965236     0.36600
C1439       C  0.20172629  0.85509290  0.44746150     0.36600
C1440       C  0.21524185  0.88275256  0.47727105     0.36600
C1441       C  0.20209465  0.86826494  0.36122836    -0.20900
C1442       C  0.20371548  0.84888460  0.38022407    -0.20900
C1443       C  0.24375926  0.95760471  0.45400258    -0.20900
C1444       C  0.24639082  0.93796141  0.47262661    -0.20900
C1445       C  0.16764682  0.95948173  0.37180574    -0.21900
C1446       C  0.17256462  0.97670904  0.39228713    -0.21900
C1447       C  0.22878784  0.85528574  0.44636574    -0.21900
C1448       C  0.23728766  0.87281952  0.46507295    -0.21900
C1449       C  0.18411981  0.91417893  0.36167525    -0.17300
C1450       C  0.18637866  0.84592051  0.42613706    -0.17300
C1451       C  0.21563836  0.90593942  0.49238050    -0.17300
C1452       C  0.20552983  0.97534499  0.42903684    -0.17300
H1453       H  0.20894568  0.86654347  0.34113395     0.15600
H1454       H  0.21179301  0.82942185  0.37767338     0.15600
H1455       H  0.25915998  0.96978860  0.44623994     0.15600
H1456       H  0.26440675  0.93157892  0.48183499     0.15600
H1457       H  0.15667156  0.96402031  0.35416020     0.13900
H1458       H  0.16639186  0.99699014  0.39310151     0.13900
H1459       H  0.24092718  0.84535512  0.43195254     0.13900
H1460       H  0.25727159  0.87901169  0.46818464     0.13900
H1461       H  0.17355520  0.89523227  0.41175211     0.27200
H1462       H  0.18457788  0.93513528  0.45874877     0.27200
N1463       N  0.18973332  0.09936727  0.39973119    -0.35600
N1464       N  0.17280932  0.10693326  0.46896777    -0.56100
N1465       N  0.20097473  0.04364387  0.45838779    -0.35600
N1466       N  0.20652655  0.04406962  0.40137965    -0.56100
C1467       C  0.17875933  0.12322434  0.40333520     0.28000
C1468       C  0.19288291  0.09555771  0.37369952     0.28000
C1469       C  0.20202459  0.04929740  0.48454317     0.28000
C1470       C  0.20865166  0.01842660  0.45486119     0.28000
C1471       C  0.18265895  0.12267350  0.45006729     0.36600
C1472       C  0.19398087  0.09518037  0.47986035     0.36600
C1473       C  0.20756706  0.04815580  0.37495506     0.36600
C1474       C  0.21306806  0.01864859  0.40563806     0.36600
C1475       C  0.17641058  0.13587552  0.37943993    -0.20900
C1476       C  0.18525082  0.11833538  0.36059221    -0.20900
C1477       C  0.21177165  0.02788372  0.49784631    -0.20900
C1478       C  0.21481795  0.00821911  0.47955934    -0.20900
C1479       C  0.20981347  0.12152078  0.44999121    -0.21900
C1480       C  0.21691034  0.10356093  0.46847825    -0.21900
C1481       C  0.21630030  0.02552920  0.36247950    -0.21900
C1482       C  0.22039468  0.00716995  0.38185090    -0.21900
C1483       C  0.16824818  0.13097938  0.42790184    -0.17300
C1484       C  0.19951089  0.07135718  0.36148275    -0.17300
C1485       C  0.20988634  0.00487336  0.43002057    -0.17300
C1486       C  0.19286608  0.07319018  0.49589935    -0.17300
H1487       H  0.16792166  0.15498350  0.37587967     0.15600
H1488       H  0.18475107  0.12167523  0.33954406     0.15600
H1489       H  0.21635662  0.02630931  0.51857901     0.15600
H1490       H  0.22158989  0.98913323  0.48492369     0.15600
H1491       H  0.22281820  0.13051063  0.43589063     0.13900
H1492       H  0.23644449  0.09621208  0.47215118     0.13900
H1493       H  0.21911973  0.02244151  0.34152197     0.13900
H1494       H  0.22683439  0.98719160  0.37859660     0.13900
H1495       H  0.19195898  0.08559690  0.41445776     0.27200
H1496       H  0.19242272  0.05570741  0.44441859     0.27200
N1497       N  0.95842555  0.18314264  0.62451814    -0.35600
N1498       N  0.95535304  0.19321512  0.56675225    -0.56100
N1499       N  0.90977801  0.16221664  0.56236209    -0.35600
N1500       N  0.91383665  0.14999151  0.61878819    -0.56100
C1501       C  0.98394711  0.18634930  0.61864017     0.28000
C1502       C  0.95764665  0.17165685  0.64852296     0.28000
C1503       C  0.90643177  0.17895101  0.54190973     0.28000
C1504       C  0.88571429  0.15425778  0.56989353     0.28000
C1505       C  0.97822540  0.20499322  0.57334616     0.36600
C1506       C  0.95004681  0.19902901  0.54103472     0.36600
C1507       C  0.91936892  0.14454961  0.64415332     0.36600
C1508       C  0.89742791  0.13113428  0.61048217     0.36600
C1509       C  0.99911091  0.17585392  0.63888794    -0.20900
C1510       C  0.98254815  0.16779865  0.65820217    -0.20900
C1511       C  0.87977458  0.18246009  0.53764235    -0.20900
C1512       C  0.86681319  0.16647012  0.55486205    -0.20900
C1513       C  0.98691474  0.21948504  0.55216087    -0.21900
C1514       C  0.96940699  0.21576491  0.53191322    -0.21900
C1515       C  0.90772142  0.12140271  0.65174599    -0.21900
C1516       C  0.89474136  0.11220107  0.62988628    -0.21900
C1517       C  0.99393469  0.19884250  0.59588322    -0.17300
C1518       C  0.93589183  0.15979178  0.65986229    -0.17300
C1519       C  0.88068402  0.13464989  0.58867099    -0.17300
C1520       C  0.92703578  0.19043298  0.52697928    -0.17300
H1521       H  0.01998023  0.17299231  0.63965634     0.15600
H1522       H  0.98822738  0.15759157  0.67600061     0.15600
H1523       H  0.87014490  0.19591048  0.52449328     0.15600
H1524       H  0.84584062  0.16435280  0.55645153     0.15600
H1525       H  0.00468793  0.23085695  0.55104333     0.13900
H1526       H  0.97118476  0.22545494  0.51326849     0.13900
H1527       H  0.90891288  0.11185700  0.67072590     0.13900
H1528       H  0.88323922  0.09449103  0.62912593     0.13900
H1529       H  0.94234656  0.18923914  0.61344122     0.27200
H1530       H  0.92743111  0.15422764  0.56889834     0.27200
N1531       N  0.06252524  0.19990628  0.62040622    -0.35600
N1532       N  0.05983850  0.19456434  0.56419167    -0.56100
N1533       N  0.11569593  0.17259692  0.56581050    -0.35600
N1534       N  0.11577372  0.17770962  0.62431813    -0.56100
C1535       C  0.03915993  0.21094569  0.61438789     0.28000
C1536       C  0.06841762  0.20619176  0.64561684     0.28000
C1537       C  0.10635560  0.16636910  0.54151901     0.28000
C1538       C  0.13046528  0.15202071  0.57356570     0.28000
C1539       C  0.03536923  0.18889583  0.57198271     0.36600
C1540       C  0.06359934  0.18034842  0.54217264     0.36600
C1541       C  0.10638452  0.17596262  0.64929666     0.36600
C1542       C  0.13273365  0.15738914  0.62123932     0.36600
C1543       C  0.03087687  0.22620076  0.63554464    -0.20900
C1544       C  0.04934789  0.22308460  0.65537110    -0.20900
C1545       C  0.11362725  0.14120947  0.53455573    -0.20900
C1546       C  0.12829575  0.13193530  0.55503249    -0.20900
C1547       C  0.02406560  0.17035632  0.55541244    -0.21900
C1548       C  0.04219315  0.16483676  0.53638236    -0.21900
C1549       C  0.11678032  0.15419942  0.66168066    -0.21900
C1550       C  0.13256711  0.14207861  0.64376534    -0.21900
C1551       C  0.02321918  0.20130327  0.59349682    -0.17300
C1552       C  0.08721375  0.19249585  0.66089861    -0.17300
C1553       C  0.14529839  0.15033458  0.59718710    -0.17300
C1554       C  0.08691115  0.18029773  0.52809632    -0.17300
H1555       H  0.01223054  0.23607979  0.63750728     0.15600
H1556       H  0.04770194  0.23048922  0.67536179     0.15600
H1557       H  0.10724315  0.13004821  0.51749900     0.15600
H1558       H  0.13538202  0.11204896  0.55661619     0.15600
H1559       H  0.00495479  0.16152689  0.55701323     0.13900
H1560       H  0.04013794  0.15093680  0.52029846     0.13900
H1561       H  0.11177665  0.14643702  0.68084056     0.13900
H1562       H  0.14058832  0.12271894  0.64653557     0.13900
H1563       H  0.07114425  0.18458158  0.60988556     0.27200
H1564       H  0.11288737  0.19033023  0.57579574     0.27200
N1565       N  0.89658437  0.17742491  0.40422364    -0.35600
N1566       N  0.89246806  0.16795694  0.47064625    -0.56100
N1567       N  0.96166994  0.18958799  0.46859651    -0.35600
N1568       N  0.95165553  0.18964926  0.40179824    -0.56100
C1569       C  0.87131514  0.17187873  0.40885962     0.28000
C1570       C  0.89928017  0.18089916  0.37789162     0.28000
C1571       C  0.94299266  0.20420444  0.48053083     0.28000
C1572       C  0.97349487  0.20517201  0.45067804     0.28000
C1573       C  0.87122835  0.17435506  0.45578261     0.36600
C1574       C  0.89903206  0.19004609  0.48433972     0.36600
C1575       C  0.94730938  0.17829850  0.37808599     0.36600
C1576       C  0.97672719  0.18437112  0.40812257     0.36600
C1577       C  0.85712681  0.17371480  0.38560011    -0.20900
C1578       C  0.87486139  0.17956449  0.36595755    -0.20900
C1579       C  0.94225451  0.22893512  0.46929128    -0.20900
C1580       C  0.96168685  0.22955411  0.45049203    -0.20900
C1581       C  0.86562435  0.20076894  0.45891782    -0.21900
C1582       C  0.88304529  0.21062753  0.47693518    -0.21900
C1583       C  0.96959592  0.16551225  0.36933036    -0.21900
C1584       C  0.98795404  0.16847087  0.38891185    -0.21900
C1585       C  0.86316679  0.16062268  0.43288235    -0.17300
C1586       C  0.92340803  0.17969437  0.36437228    -0.17300
C1587       C  0.98939981  0.19575749  0.43014584    -0.17300
C1588       C  0.92338675  0.19399302  0.49695232    -0.17300
H1589       H  0.83663696  0.16929980  0.38280875     0.15600
H1590       H  0.87060729  0.18027166  0.34503664     0.15600
H1591       H  0.92856520  0.24455997  0.47358139     0.15600
H1592       H  0.96555471  0.24540047  0.43696996     0.15600
H1593       H  0.85159433  0.21209426  0.44768952     0.13900
H1594       H  0.88483301  0.23095793  0.48279979     0.13900
H1595       H  0.97213822  0.15445258  0.35123300     0.13900
H1596       H  0.00739672  0.16011433  0.38871217     0.13900
H1597       H  0.91133711  0.17463788  0.41814984     0.27200
H1598       H  0.96493664  0.16954854  0.47119613     0.27200
N1599       N  0.10654628  0.16165637  0.40269488    -0.35600
N1600       N  0.10858961  0.16241933  0.45940434    -0.56100
N1601       N  0.05509002  0.18347737  0.46044968    -0.35600
N1602       N  0.05653666  0.18738803  0.40417475    -0.56100
C1603       C  0.12313136  0.14195722  0.40899454     0.28000
C1604       C  0.09573638  0.15569827  0.37908249     0.28000
C1605       C  0.06306697  0.18999006  0.48508255     0.28000
C1606       C  0.03208584  0.19599283  0.45609350     0.28000
C1607       C  0.13385908  0.15769474  0.45297139     0.36600
C1608       C  0.10870542  0.17416613  0.48331346     0.36600
C1609       C  0.06182530  0.18970912  0.37823794     0.36600
C1610       C  0.03382025  0.20004892  0.40847712     0.36600
C1611       C  0.12161782  0.12249605  0.38979326    -0.20900
C1612       C  0.10496682  0.13158756  0.37043691    -0.20900
C1613       C  0.04538078  0.20785701  0.49578311    -0.20900
C1614       C  0.02560425  0.21110562  0.47783009    -0.20900
C1615       C  0.15022333  0.16746165  0.47243367    -0.21900
C1616       C  0.13430098  0.17802710  0.49156495    -0.21900
C1617       C  0.04334813  0.20568262  0.36627120    -0.21900
C1618       C  0.02561179  0.21240457  0.38557807    -0.21900
C1619       C  0.14135906  0.14348266  0.43012228    -0.17300
C1620       C  0.07899343  0.17257053  0.36495256    -0.17300
C1621       C  0.01889872  0.19692958  0.43167559    -0.17300
C1622       C  0.08595300  0.18050656  0.49808411    -0.17300
H1623       H  0.13203268  0.10402245  0.38928914     0.15600
H1624       H  0.10017024  0.12146649  0.35225364     0.15600
H1625       H  0.04700185  0.21860901  0.51416227     0.15600
H1626       H  0.00986166  0.22511276  0.47979272     0.15600
H1627       H  0.17133930  0.16757566  0.47274664     0.13900
H1628       H  0.14091538  0.18778855  0.50936564     0.13900
H1629       H  0.04152788  0.21011631  0.34548399     0.13900
H1630       H  0.00772812  0.22341791  0.38269755     0.13900
H1631       H  0.10511401  0.17973516  0.41236318     0.27200
H1632       H  0.06355099  0.16956453  0.44801409     0.27200
O1633       O  0.12755013  0.26019220  0.09966579    -0.56800
C1634       C  0.17340585  0.26672835  0.02856647     0.75900
O1635       O  0.19789875  0.30750581  0.10055157    -0.57900
C1636       C  0.13244746  0.26234327  0.12414384     0.75800
C1637       C  0.21163551  0.22821382  0.09158851     0.78200
Cd1638     Cd  0.17332737  0.26867643  0.08541669     1.37500
O1639       O  0.15282161  0.26030198  0.04088422    -0.56800
O1640       O  0.18784366  0.22298239  0.08712926    -0.55600
C1641       C  0.18263805  0.32358865  0.08932274     0.78200
O1642       O  0.21732687  0.25199117  0.09584070    -0.58000
O1643       O  0.19284675  0.27328099  0.04241973    -0.56400
O1644       O  0.15608186  0.26601726  0.13053671    -0.56400
O1645       O  0.16261839  0.31424483  0.07811818    -0.55600
O1646       O  0.22700115  0.25186206  0.93795940    -0.56800
C1647       C  0.19653041  0.32291208  0.93106308     0.75900
O1648       O  0.13551938  0.25864834  0.93379111    -0.57900
C1649       C  0.22041983  0.22821648  0.93498364     0.75800
C1650       C  0.17546040  0.26706354  0.99966956     0.78200
Cd1651     Cd  0.18241986  0.26917474  0.94307194     1.37500
O1652       O  0.20496821  0.30416352  0.91702499    -0.56800
O1653       O  0.19663617  0.27363915  0.98881571    -0.55600
C1654       C  0.13804200  0.26094229  0.90907733     0.78200
O1655       O  0.15672509  0.26117631  0.98442191    -0.58000
O1656       O  0.18170333  0.31685270  0.94997984    -0.56400
O1657       O  0.19622159  0.22343758  0.93467945    -0.56400
O1658       O  0.16061019  0.26627534  0.90067670    -0.55600
O1659       O  0.31460628  0.17459975  0.09373265    -0.56800
C1660       C  0.23179297  0.20785948  0.08973161     0.75900
O1661       O  0.28496248  0.14408614  0.03919729    -0.57900
C1662       C  0.32365749  0.18338212  0.07228185     0.75800
C1663       C  0.26806758  0.12729402  0.11807903     0.78200
Cd1664     Cd  0.27033111  0.16810782  0.07877651     1.37500
O1665       O  0.25594161  0.21322060  0.09021330    -0.56800
O1666       O  0.27582339  0.15020634  0.12343744    -0.55600
C1667       C  0.26674173  0.15278296  0.02478639     0.78200
O1668       O  0.26052930  0.12311381  0.09459391    -0.58000
O1669       O  0.22573982  0.18420686  0.08566129    -0.56400
O1670       O  0.30714987  0.18987596  0.05492973    -0.56400
O1671       O  0.24808408  0.16449297  0.03625375    -0.55600
O1672       O  0.27409850  0.11980551  0.92830763    -0.56800
C1673       C  0.26896129  0.15309079  0.99605964     0.75900
O1674       O  0.31476336  0.19689053  0.95425539    -0.57900
C1675       C  0.27098602  0.12446695  0.90398045     0.75800
C1676       C  0.23993432  0.20728051  0.93402325     0.78200
Cd1677     Cd  0.27766239  0.16655625  0.94192797     1.37500
O1678       O  0.28929033  0.14511766  0.98425025    -0.56800
O1679       O  0.23345577  0.18341534  0.93275494    -0.55600
C1680       C  0.32961629  0.18908114  0.93592832     0.78200
O1681       O  0.26402364  0.21219728  0.93628731    -0.58000
O1682       O  0.25192808  0.16455548  0.98225839    -0.56400
O1683       O  0.27024255  0.14832573  0.89735981    -0.56400
O1684       O  0.32079828  0.17069639  0.92165663    -0.55600
O1685       O  0.03059308  0.25613533  0.15997614    -0.56800
C1686       C  0.11179108  0.26195300  0.14430684     0.75900
O1687       O  0.08462903  0.30557065  0.21287322    -0.57900
C1688       C  0.01592048  0.26436446  0.17840391     0.75800
C1689       C  0.07835698  0.22473039  0.22188086     0.78200
Cd1690     Cd  0.07197134  0.26720232  0.18466959     1.37500
O1691       O  0.08773906  0.26153125  0.13837566    -0.56800
O1692       O  0.07068802  0.22100961  0.19840224    -0.55600
C1693       C  0.07821731  0.32247229  0.19579608     0.78200
O1694       O  0.08453334  0.24798939  0.22809939    -0.58000
O1695       O  0.11729115  0.26323919  0.16863045    -0.56400
O1696       O  0.02714360  0.27352413  0.19867962    -0.56400
O1697       O  0.06848501  0.31387183  0.17451099    -0.55600
O1698       O  0.97439141  0.25630751  0.15701858    -0.56800
C1699       C  0.89319970  0.25858667  0.13660872     0.75900
O1700       O  0.91578155  0.24788153  0.22128825    -0.57900
C1701       C  0.98723334  0.26378410  0.17714894     0.75800
C1702       C  0.92588632  0.32041545  0.18932995     0.78200
Cd1703     Cd  0.93077131  0.26523456  0.17861819     1.37500
O1704       O  0.91732354  0.25475985  0.13246558    -0.56800
O1705       O  0.93457246  0.31146302  0.16774083    -0.55600
C1706       C  0.92306685  0.22457061  0.21674624     0.78200
O1707       O  0.91793700  0.30386299  0.20599169    -0.58000
O1708       O  0.88661930  0.26416946  0.16001795    -0.56400
O1709       O  0.97409632  0.27124996  0.19686593    -0.56400
O1710       O  0.93168399  0.21959608  0.19386005    -0.55600
O1711       O  0.08585712  0.20662941  0.26485080    -0.56800
C1712       C  0.07664166  0.16942949  0.33610301     0.75900
O1713       O  0.02885796  0.14151441  0.26876854    -0.57900
C1714       C  0.07852773  0.20327293  0.24117975     0.75800
C1715       C  0.11348672  0.12332646  0.27427734     0.78200
Cd1716     Cd  0.07214952  0.16249495  0.28016210     1.37500
O1717       O  0.08458300  0.18688005  0.32036497    -0.56800
O1718       O  0.11755492  0.14677165  0.28123425    -0.55600
C1719       C  0.01565442  0.16022348  0.27876233     0.78200
O1720       O  0.09009858  0.11761398  0.26816635    -0.58000
O1721       O  0.06651109  0.14912578  0.32600414    -0.56400
O1722       O  0.07005588  0.18073254  0.23517408    -0.56400
O1723       O  0.02847221  0.17870602  0.28918079    -0.55600
O1724       O  0.97254927  0.14349077  0.26886160    -0.56800
C1725       C  0.89005785  0.12935386  0.27047512     0.75900
O1726       O  0.92196383  0.19465705  0.31941948    -0.57900
C1727       C  0.98688753  0.16139674  0.27849453     0.75800
C1728       C  0.92347290  0.20472740  0.23754829     0.78200
Cd1729     Cd  0.93047459  0.16733907  0.27934287     1.37500
O1730       O  0.91394734  0.12267279  0.27047473    -0.56800
O1731       O  0.93269253  0.18206446  0.23332195    -0.55600
C1732       C  0.92391524  0.17573584  0.33541458     0.78200
O1733       O  0.91628238  0.20990498  0.26092552    -0.58000
O1734       O  0.88509363  0.15353458  0.27290803    -0.56400
O1735       O  0.97523282  0.18112070  0.28807997    -0.56400
O1736       O  0.92769187  0.15326351  0.32550056    -0.55600
O1737       O  0.26387400  0.96814023  0.15103832    -0.56800
C1738       C  0.26400225  0.88432643  0.13649129     0.75900
O1739       O  0.31819268  0.90885941  0.18772487    -0.57900
C1740       C  0.27260836  0.98147004  0.17040170     0.75800
C1741       C  0.23877216  0.92068313  0.21433093     0.78200
Cd1742     Cd  0.27583747  0.92587710  0.17226791     1.37500
O1743       O  0.26116536  0.90792189  0.12916066    -0.56800
O1744       O  0.23221274  0.92676244  0.19104351    -0.55600
C1745       C  0.33181548  0.91979265  0.17003463     0.78200
O1746       O  0.26276974  0.91569522  0.21837408    -0.58000
O1747       O  0.27007923  0.88050321  0.16034038    -0.56400
O1748       O  0.28242245  0.96899205  0.18955250    -0.56400
O1749       O  0.31960853  0.93408571  0.15384292    -0.55600
O1750       O  0.26267310  0.08305102  0.13272101    -0.56800
C1751       C  0.27193478  0.01009820  0.17142365     0.75900
O1752       O  0.31255380  0.06986909  0.20657818    -0.57900
C1753       C  0.26871871  0.10655917  0.13807236     0.75800
C1754       C  0.23409688  0.07463177  0.21531867     0.78200
Cd1755     Cd  0.27392927  0.06594174  0.17713618     1.37500
O1756       O  0.26380224  0.02429833  0.15261889    -0.56800
O1757       O  0.22897146  0.06521518  0.19274695    -0.55600
C1758       C  0.32853070  0.06642439  0.18783078     0.78200
O1759       O  0.25735480  0.08187694  0.21960916    -0.58000
O1760       O  0.28001159  0.02175500  0.19187136    -0.56400
O1761       O  0.27618643  0.11131395  0.16144543    -0.56400
O1762       O  0.31919441  0.06377384  0.16483515    -0.55600
O1763       O  0.13633165  0.91353075  0.26260017    -0.56800
C1764       C  0.17757605  0.98234239  0.27623459     0.75900
O1765       O  0.20133866  0.90931491  0.31750372    -0.57900
C1766       C  0.14090793  0.88924687  0.26497180     0.75800
C1767       C  0.21929520  0.92078354  0.23553921     0.78200
Cd1768     Cd  0.18069374  0.92637279  0.27637163     1.37500
O1769       O  0.15836066  0.96875014  0.26836330    -0.56800
O1770       O  0.19623432  0.92860721  0.23110108    -0.55600
C1771       C  0.18318291  0.91731233  0.33257897     0.78200
O1772       O  0.22466913  0.91414555  0.25903292    -0.58000
O1773       O  0.19756564  0.97006498  0.28426355    -0.56400
O1774       O  0.16417807  0.88243537  0.26991838    -0.56400
O1775       O  0.16432115  0.92896690  0.32155743    -0.55600
O1776       O  0.15690587  0.02423175  0.27060372    -0.56800
C1777       C  0.13506922  0.10398856  0.27448623     0.75900
O1778       O  0.20567694  0.08274466  0.31590351    -0.57900
C1779       C  0.17718782  0.01099417  0.27622252     0.75800
C1780       C  0.21448111  0.07500646  0.23613866     0.78200
Cd1781     Cd  0.17865117  0.06702836  0.27848091     1.37500
O1782       O  0.13204364  0.08008118  0.26839218    -0.56800
O1783       O  0.19181215  0.06605137  0.23215413    -0.55600
C1784       C  0.19369245  0.06935408  0.33299351     0.78200
O1785       O  0.21993056  0.08243032  0.25936173    -0.58000
O1786       O  0.15777752  0.11057393  0.28177449    -0.56400
O1787       O  0.19756194  0.02364789  0.28213184    -0.56400
O1788       O  0.17501082  0.05528317  0.32486701    -0.55600
O1789       O  0.73630809  0.87187299  0.92473413    -0.56800
C1790       C  0.73879890  0.82958154  0.99342491     0.75900
O1791       O  0.69217062  0.80645986  0.91942085    -0.57900
C1792       C  0.73665403  0.86655375  0.90028165     0.75800
C1793       C  0.77380625  0.78653026  0.93255913     0.78200
Cd1794     Cd  0.73305366  0.82536640  0.93818225     1.37500
O1795       O  0.74729882  0.84819510  0.97930457    -0.56800
O1796       O  0.77880952  0.81034510  0.93731958    -0.55600
C1797       C  0.67732012  0.81737635  0.93624284     0.78200
O1798       O  0.75007891  0.78081346  0.92822477    -0.58000
O1799       O  0.72850537  0.81026667  0.98173276    -0.56400
O1800       O  0.73696204  0.84259226  0.89381932    -0.56400
O1801       O  0.68820275  0.83109705  0.95388949    -0.55600
O1802       O  0.74743829  0.87115593  0.09085150    -0.56800
C1803       C  0.73975524  0.82958272  0.02211683     0.75900
O1804       O  0.75238200  0.78158768  0.08823168    -0.57900
C1805       C  0.74625735  0.86599621  0.11524669     0.75800
C1806       C  0.68006893  0.82572831  0.08349725     0.78200
Cd1807     Cd  0.73663100  0.82633474  0.07763789     1.37500
O1808       O  0.74810800  0.84872532  0.03580744    -0.56800
O1809       O  0.69189143  0.84004899  0.06726934    -0.55600
C1810       C  0.77640069  0.78700217  0.08545322     0.78200
O1811       O  0.69440809  0.81042335  0.09697551    -0.58000
O1812       O  0.73127729  0.80980852  0.03429627    -0.56400
O1813       O  0.74258711  0.84243588  0.12174398    -0.56400
O1814       O  0.78189669  0.81048466  0.07994086    -0.55600
O1815       O  0.85694102  0.73809636  0.98298274    -0.56800
C1816       C  0.87100771  0.72895720  0.89720903     0.75900
O1817       O  0.80464929  0.68842843  0.92935556    -0.57900
C1818       C  0.83991095  0.72703433  0.99728120     0.75800
C1819       C  0.79436082  0.76637501  0.93359877     0.78200
Cd1820     Cd  0.83335987  0.72582515  0.94044747     1.37500
O1821       O  0.87833039  0.73164466  0.92101394    -0.56800
O1822       O  0.81737378  0.77169630  0.94112339    -0.55600
C1823       C  0.82086657  0.67125830  0.93697366     0.78200
O1824       O  0.78963363  0.74261872  0.92829958    -0.58000
O1825       O  0.84677914  0.72603061  0.89352612    -0.56400
O1826       O  0.82113740  0.71619556  0.98534478    -0.56400
O1827       O  0.84232601  0.67937085  0.94633614    -0.55600
O1828       O  0.88156712  0.73586379  0.09805075    -0.56800
C1829       C  0.84057634  0.72672655  0.02632934     0.75900
O1830       O  0.81046732  0.68791091  0.09897099    -0.57900
C1831       C  0.87659231  0.73324605  0.12237527     0.75800
C1832       C  0.79692718  0.76687601  0.08712256     0.78200
Cd1833     Cd  0.83624809  0.72629474  0.08329081     1.37500
O1834       O  0.85863039  0.73691264  0.04014857    -0.56800
O1835       O  0.82046566  0.77201935  0.08166285    -0.55600
C1836       C  0.82681352  0.67120029  0.09044918     0.78200
O1837       O  0.79184949  0.74335393  0.09288248    -0.58000
O1838       O  0.82207039  0.71620345  0.03878585    -0.56400
O1839       O  0.85299583  0.72934840  0.12849626    -0.56400
O1840       O  0.84755682  0.68006040  0.08041533    -0.55600
O1841       O  0.68611585  0.91034627  0.81513759    -0.56800
C1842       C  0.76498898  0.91460860  0.79949242     0.75900
O1843       O  0.73892760  0.96781546  0.85786244    -0.57900
C1844       C  0.67083606  0.91756943  0.83345859     0.75800
C1845       C  0.73524726  0.88680620  0.88002333     0.78200
Cd1846     Cd  0.72612341  0.92414696  0.83903009     1.37500
O1847       O  0.74161378  0.90722296  0.79596954    -0.56800
O1848       O  0.73387529  0.88047463  0.85591531    -0.55600
C1849       C  0.72849186  0.98058956  0.83914206     0.78200
O1850       O  0.73403871  0.91103609  0.88555149    -0.58000
O1851       O  0.77051681  0.92474852  0.82166322    -0.56400
O1852       O  0.68128048  0.92668716  0.85416271    -0.56400
O1853       O  0.71723871  0.96739099  0.82129619    -0.55600
O1854       O  0.73938104  0.07739034  0.87853349    -0.56800
C1855       C  0.72919726  0.00929081  0.83751652     0.75900
O1856       O  0.69149939  0.08543786  0.80663281    -0.57900
C1857       C  0.73884374  0.10178157  0.87425677     0.75800
C1858       C  0.77258169  0.07022332  0.79560865     0.78200
Cd1859     Cd  0.72952673  0.06551301  0.83196953     1.37500
O1860       O  0.73898305  0.02361211  0.85547194    -0.56800
O1861       O  0.77585882  0.06361908  0.81936810    -0.55600
C1862       C  0.67441843  0.07568054  0.82172420     0.78200
O1863       O  0.74947437  0.07591604  0.78863543    -0.58000
O1864       O  0.71984882  0.02089572  0.81760315    -0.56400
O1865       O  0.73499165  0.10894409  0.85072831    -0.56400
O1866       O  0.68285719  0.06230905  0.84088126    -0.55600
O1867       O  0.86704746  0.90624955  0.74233597    -0.56800
C1868       C  0.82981625  0.97526967  0.73531473     0.75900
O1869       O  0.78765509  0.91507035  0.69983702    -0.57900
C1870       C  0.86318781  0.88179690  0.74120488     0.75800
C1871       C  0.78444422  0.91347236  0.77838285     0.78200
Cd1872     Cd  0.82078086  0.91911676  0.73550902     1.37500
O1873       O  0.84544481  0.95999831  0.74705265    -0.56800
O1874       O  0.80656221  0.92398547  0.78132249    -0.55600
C1875       C  0.80428510  0.91209981  0.68162236     0.78200
O1876       O  0.77954619  0.90358088  0.75597189    -0.58000
O1877       O  0.81099889  0.96466312  0.72319990    -0.56400
O1878       O  0.83969557  0.87447430  0.73866843    -0.56400
O1879       O  0.82801882  0.91077323  0.68854265    -0.55600
O1880       O  0.88027231  0.07156468  0.75142410    -0.56800
C1881       C  0.83248470  0.00390972  0.73613356     0.75900
O1882       O  0.79158457  0.07732624  0.75328273    -0.57900
C1883       C  0.87730446  0.09586867  0.74727943     0.75800
C1884       C  0.82607252  0.06685711  0.68267285     0.78200
Cd1885     Cd  0.83418032  0.06041640  0.73791114     1.37500
O1886       O  0.85178835  0.01545111  0.74677669    -0.56800
O1887       O  0.84673688  0.05678453  0.69193118    -0.55600
C1888       C  0.79425751  0.06946559  0.77676431     0.78200
O1889       O  0.80955039  0.07573715  0.69903859    -0.58000
O1890       O  0.81483264  0.01832411  0.72650065    -0.56400
O1891       O  0.85478615  0.10327637  0.74015972    -0.56400
O1892       O  0.81609507  0.05941657  0.78282871    -0.55600
O1893       O  0.91393786  0.72687257  0.87820246    -0.56800
C1894       C  0.98146526  0.72678826  0.83717911     0.75900
O1895       O  0.90543258  0.68577153  0.80323933    -0.57900
C1896       C  0.88948473  0.72815999  0.87484971     0.75800
C1897       C  0.92003791  0.76446761  0.79255860     0.78200
Cd1898     Cd  0.92540974  0.72246130  0.83033139     1.37500
O1899       O  0.96652262  0.73269812  0.85622126    -0.56800
O1900       O  0.92573190  0.76870076  0.81649652    -0.55600
C1901       C  0.91906849  0.66796564  0.81386383     0.78200
O1902       O  0.91500207  0.74102503  0.78621429    -0.58000
O1903       O  0.97053395  0.71921183  0.81610883    -0.56400
O1904       O  0.88161170  0.72769809  0.85114950    -0.56400
O1905       O  0.93487202  0.67531129  0.83161664    -0.55600
O1906       O  0.08012270  0.73572910  0.88314955    -0.56800
C1907       C  0.01012194  0.72817654  0.83853521     0.75900
O1908       O  0.07987112  0.74766001  0.79392023    -0.57900
C1909       C  0.10430063  0.73651123  0.87789564     0.75800
C1910       C  0.07602182  0.67378314  0.82385753     0.78200
Cd1911     Cd  0.06662352  0.72851039  0.83638901     1.37500
O1912       O  0.02286231  0.73410661  0.85923549    -0.56800
O1913       O  0.06903857  0.68147554  0.84653413    -0.55600
C1914       C  0.07283865  0.77082032  0.79957216     0.78200
O1915       O  0.08009834  0.69141623  0.80692050    -0.58000
O1916       O  0.02336009  0.72298116  0.81820618    -0.56400
O1917       O  0.11056294  0.73553709  0.85377963    -0.56400
O1918       O  0.06458580  0.77484451  0.82279904    -0.55600
O1919       O  0.92155095  0.80221963  0.69212796    -0.56800
C1920       C  0.92075421  0.78555287  0.77300094     0.75900
O1921       O  0.96818606  0.85010925  0.74795089    -0.57900
C1922       C  0.92855685  0.82150235  0.67817734     0.75800
C1923       C  0.88497276  0.86290215  0.74123516     0.78200
Cd1924     Cd  0.92763210  0.82608061  0.73455906     1.37500
O1925       O  0.91471984  0.78172922  0.74898773    -0.56800
O1926       O  0.88109944  0.83867501  0.73765197    -0.55600
C1927       C  0.98299925  0.83196761  0.73935538     0.78200
O1928       O  0.90856255  0.87010562  0.74345452    -0.58000
O1929       O  0.92868425  0.80823774  0.77925730    -0.56400
O1930       O  0.93456601  0.84232544  0.69027584    -0.56400
O1931       O  0.97208307  0.81187765  0.72980466    -0.55600
O1932       O  0.07803704  0.78704436  0.75570811    -0.56800
C1933       C  0.07763576  0.82849575  0.68454274     0.75900
O1934       O  0.02411621  0.85188954  0.75078910    -0.57900
C1935       C  0.07285655  0.79169188  0.77974846     0.75800
C1936       C  0.10522657  0.87130383  0.75081136     0.78200
Cd1937     Cd  0.06747360  0.83168648  0.74025668     1.37500
O1938       O  0.08606157  0.81072625  0.69979981    -0.56800
O1939       O  0.11106830  0.84728971  0.74880432    -0.55600
C1940       C  0.01155420  0.83332287  0.73991860     0.78200
O1941       O  0.08115490  0.87725613  0.75035536    -0.58000
O1942       O  0.06530547  0.84722083  0.69519092    -0.56400
O1943       O  0.06648556  0.81497925  0.78567672    -0.56400
O1944       O  0.02481554  0.81522233  0.72926127    -0.55600
O1945       O  0.79290734  0.91577526  0.25724473    -0.56800
C1946       C  0.82119490  0.93164110  0.33018667     0.75900
O1947       O  0.88129874  0.91951353  0.26530898    -0.57900
C1948       C  0.79704224  0.92310291  0.23382782     0.75800
C1949       C  0.83510370  0.98817095  0.27412353     0.78200
Cd1950     Cd  0.83461359  0.93226009  0.27522601     1.37500
O1951       O  0.80751317  0.91936767  0.31332719    -0.56800
O1952       O  0.81564763  0.97498436  0.28143080    -0.55600
C1953       C  0.87781941  0.89533356  0.26952228     0.78200
O1954       O  0.85504007  0.97552752  0.26625206    -0.58000
O1955       O  0.84175444  0.94244270  0.32186527    -0.56400
O1956       O  0.81909043  0.93319945  0.22916391    -0.56400
O1957       O  0.85488819  0.88858230  0.27567119    -0.55600
O1958       O  0.87367767  0.08564594  0.27037482    -0.56800
C1959       C  0.83388587  0.01673114  0.27508771     0.75900
O1960       O  0.80016929  0.08670150  0.31440268    -0.57900
C1961       C  0.86898167  0.10998025  0.26975394     0.75800
C1962       C  0.78973206  0.07506175  0.23478960     0.78200
Cd1963     Cd  0.82778245  0.07240572  0.27664854     1.37500
O1964       O  0.85115831  0.03118826  0.26491540    -0.56800
O1965       O  0.81317200  0.06831271  0.23069398    -0.55600
C1966       C  0.81674323  0.08050099  0.33194506     0.78200
O1967       O  0.78410561  0.08264210  0.25793672    -0.58000
O1968       O  0.81487190  0.02805471  0.28623911    -0.56400
O1969       O  0.84519930  0.11686469  0.27028092    -0.56400
O1970       O  0.83810042  0.07095064  0.32385432    -0.55600
O1971       O  0.74568171  0.91043076  0.12935245    -0.56800
C1972       C  0.73508720  0.97974412  0.17011148     0.75900
O1973       O  0.69589652  0.90686750  0.19730996    -0.57900
C1974       C  0.74655980  0.88637759  0.13529479     0.75800
C1975       C  0.77677153  0.92137869  0.21340040     0.78200
Cd1976     Cd  0.73597556  0.92407322  0.17453141     1.37500
O1977       O  0.74531576  0.96615308  0.15181161    -0.56800
O1978       O  0.78125951  0.92828632  0.18991014    -0.55600
C1979       C  0.68072109  0.91286864  0.17841922     0.78200
O1980       O  0.75368385  0.91418419  0.21867228    -0.58000
O1981       O  0.72528367  0.96753540  0.18930735    -0.56400
O1982       O  0.74536906  0.88044568  0.15945934    -0.56400
O1983       O  0.69129230  0.92278766  0.15835011    -0.55600
O1984       O  0.74630499  0.02206838  0.15302164    -0.56800
C1985       C  0.73842407  0.10344524  0.13443774     0.75900
O1986       O  0.69016292  0.07371077  0.19726350    -0.57900
C1987       C  0.73434516  0.00832773  0.16990940     0.75800
C1988       C  0.76994351  0.07282337  0.21390071     0.78200
Cd1989     Cd  0.73123336  0.06399401  0.17355248     1.37500
O1990       O  0.73876736  0.07939718  0.12805648    -0.56800
O1991       O  0.77577093  0.06368958  0.19138298    -0.55600
C1992       C  0.67563123  0.06823154  0.17767520     0.78200
O1993       O  0.74618546  0.07878706  0.21774385    -0.58000
O1994       O  0.73650934  0.10887610  0.15874014    -0.56400
O1995       O  0.72157507  0.02038969  0.18748836    -0.56400
O1996       O  0.68683289  0.06121031  0.15658778    -0.55600
O1997       O  0.92217967  0.88090952  0.26111055    -0.56800
C1998       C  0.99555357  0.83851767  0.27175046     0.75900
O1999       O  0.92407921  0.81897118  0.31571167    -0.57900
C2000       C  0.89911850  0.87579350  0.26868910     0.75800
C2001       C  0.93163393  0.79328659  0.23729970     0.78200
Cd2002     Cd  0.93970372  0.83629667  0.27364422     1.37500
O2003       O  0.98234028  0.85683994  0.26116653    -0.56800
O2004       O  0.93687159  0.81621214  0.22953461    -0.55600
C2005       C  0.93809385  0.83420057  0.32958507     0.78200
O2006       O  0.92843471  0.79033329  0.26187638    -0.58000
O2007       O  0.98292997  0.81987000  0.28182852    -0.56400
O2008       O  0.89507657  0.85273976  0.27657422    -0.56400
O2009       O  0.95303695  0.84975602  0.31762191    -0.55600
O2010       O  0.09628797  0.87627457  0.26144548    -0.56800
C2011       C  0.02414714  0.83820775  0.27304701     0.75900
O2012       O  0.08953269  0.78806098  0.26307756    -0.57900
C2013       C  0.12000706  0.86993195  0.26508718     0.75800
C2014       C  0.08700659  0.83824466  0.33370312     0.78200
Cd2015     Cd  0.07977394  0.83397063  0.27686795     1.37500
O2016       O  0.03833117  0.85566125  0.26266061    -0.56800
O2017       O  0.07808031  0.85663255  0.31968930    -0.55600
C2018       C  0.08518221  0.79228146  0.23878118     0.78200
O2019       O  0.09260507  0.81712630  0.32149827    -0.58000
O2020       O  0.03573989  0.81989598  0.28511620    -0.56400
O2021       O  0.12482832  0.84646106  0.27143950    -0.56400
O2022       O  0.08013890  0.81564749  0.23227470    -0.55600
O2023       O  0.92105169  0.73627562  0.13695075    -0.56800
C2024       C  0.99229832  0.72974382  0.17798270     0.75900
O2025       O  0.92515746  0.74804543  0.22569681    -0.57900
C2026       C  0.89715114  0.73320439  0.14259336     0.75800
C2027       C  0.93305713  0.67246989  0.19125314     0.78200
Cd2028     Cd  0.93686832  0.72777699  0.18239321     1.37500
O2029       O  0.97827127  0.73797504  0.15905755    -0.56800
O2030       O  0.94162410  0.68184150  0.16992866    -0.55600
C2031       C  0.93105648  0.77109593  0.21869997     0.78200
O2032       O  0.92610407  0.68869568  0.20897253    -0.58000
O2033       O  0.98062048  0.72079375  0.19789617    -0.56400
O2034       O  0.89176027  0.72882312  0.16652230    -0.56400
O2035       O  0.93789528  0.77405459  0.19495002    -0.55600
O2036       O  0.08852884  0.74249598  0.13568700    -0.56800
C2037       C  0.02079030  0.73036398  0.17768952     0.75900
O2038       O  0.09159796  0.68986450  0.20326044    -0.57900
C2039       C  0.11267053  0.73865469  0.13972352     0.75800
C2040       C  0.08432971  0.77114103  0.21904521     0.78200
Cd2041     Cd  0.07647815  0.73024004  0.18060466     1.37500
O2042       O  0.03383177  0.74021907  0.15900295    -0.56800
O2043       O  0.07856574  0.77591297  0.19525164    -0.55600
C2044       C  0.08426924  0.67464622  0.18480521     0.78200
O2045       O  0.08787915  0.74733253  0.22505666    -0.58000
O2046       O  0.03349434  0.72096442  0.19684915    -0.56400
O2047       O  0.11986102  0.73320537  0.16297250    -0.56400
O2048       O  0.07468705  0.68522018  0.16445126    -0.55600
O2049       O  0.25871209  0.84077093  0.98386624    -0.56800
C2050       C  0.26557856  0.85959330  0.90366029     0.75900
O2051       O  0.31265052  0.79332128  0.93504338    -0.57900
C2052       C  0.26626375  0.82152162  0.99771129     0.75800
C2053       C  0.22888965  0.78184239  0.93271998     0.78200
Cd2054     Cd  0.27085347  0.81827188  0.94218058     1.37500
O2055       O  0.26041821  0.86363663  0.92778839    -0.56800
O2056       O  0.22527281  0.80474068  0.94166107    -0.55600
C2057       C  0.32679989  0.81134756  0.94482040     0.78200
O2058       O  0.25212263  0.77572493  0.92645195    -0.58000
O2059       O  0.27255617  0.83655726  0.89735127    -0.56400
O2060       O  0.27448965  0.80139968  0.98567956    -0.56400
O2061       O  0.31503057  0.83153214  0.95316224    -0.55600
O2062       O  0.25974008  0.84177725  0.03996544    -0.56800
C2063       C  0.26286581  0.86223208  0.11809728     0.75900
O2064       O  0.25371592  0.77486961  0.09021987    -0.57900
C2065       C  0.26656056  0.82196373  0.02641573     0.75800
C2066       C  0.32683203  0.81467435  0.08791876     0.78200
Cd2067     Cd  0.27059607  0.81983753  0.08227196     1.37500
O2068       O  0.25862822  0.86529784  0.09366540    -0.56800
O2069       O  0.31618659  0.83272112  0.07468483    -0.55600
C2070       C  0.22992929  0.78167964  0.08868467     0.78200
O2071       O  0.31149316  0.79879367  0.09917827    -0.58000
O2072       O  0.26829202  0.83929873  0.12585774    -0.56400
O2073       O  0.27462864  0.80209761  0.03877040    -0.56400
O2074       O  0.22525108  0.80594415  0.08693640    -0.55600
O2075       O  0.11912829  0.73717028  0.92288750    -0.56800
C2076       C  0.16273146  0.73145291  0.99267501     0.75900
O2077       O  0.17878045  0.68432742  0.91723212    -0.57900
C2078       C  0.12448096  0.73631085  0.89847739     0.75800
C2079       C  0.20711805  0.76318622  0.93145770     0.78200
Cd2080     Cd  0.16461769  0.72680445  0.93686035     1.37500
O2081       O  0.14384007  0.74048486  0.97911347    -0.56800
O2082       O  0.18429161  0.77026549  0.93795865    -0.55600
C2083       C  0.16585762  0.67052507  0.93327065     0.78200
O2084       O  0.21027040  0.73923407  0.92540911    -0.58000
O2085       O  0.18156500  0.72107292  0.98029645    -0.56400
O2086       O  0.14823835  0.73339862  0.89236392    -0.56400
O2087       O  0.15298505  0.68260507  0.95074903    -0.55600
O2088       O  0.14425492  0.73970216  0.03547418    -0.56800
C2089       C  0.13136611  0.73789380  0.11825024     0.75900
O2090       O  0.18164686  0.68355128  0.09113716    -0.57900
C2091       C  0.16330492  0.73186370  0.02145839     0.75800
C2092       C  0.20863721  0.76261666  0.08689128     0.78200
Cd2093     Cd  0.16663589  0.72700181  0.07707587     1.37500
O2094       O  0.12494479  0.74301663  0.09461911    -0.56800
O2095       O  0.18536886  0.77024363  0.08309627    -0.55600
C2096       C  0.16277531  0.67098042  0.08087811     0.78200
O2097       O  0.21265373  0.73806723  0.08728776    -0.58000
O2098       O  0.15438015  0.72988786  0.12247858    -0.56400
O2099       O  0.18330069  0.72330686  0.03337127    -0.56400
O2100       O  0.14613883  0.68431744  0.06828231    -0.55600
O2101       O  0.25879984  0.90415517  0.88986260    -0.56800
C2102       C  0.26749832  0.97800898  0.84874951     0.75900
O2103       O  0.30853079  0.91054215  0.82011423    -0.57900
C2104       C  0.26455270  0.88064509  0.88392164     0.75800
C2105       C  0.22726885  0.91657696  0.80564043     0.78200
Cd2106     Cd  0.26819229  0.92175773  0.84486658     1.37500
O2107       O  0.25833375  0.96471542  0.86773386    -0.56800
O2108       O  0.22257333  0.92358773  0.82917314    -0.55600
C2109       C  0.32360927  0.92129004  0.83688550     0.78200
O2110       O  0.25056004  0.90976440  0.80053458    -0.58000
O2111       O  0.27579089  0.96531907  0.82898841    -0.56400
O2112       O  0.27032747  0.87613769  0.86006692    -0.56400
O2113       O  0.31313404  0.93094345  0.85732222    -0.55600
O2114       O  0.26074772  0.02123032  0.86733414    -0.56800
C2115       C  0.26953850  0.10339907  0.88413151     0.75900
O2116       O  0.30958903  0.07481417  0.81459167    -0.57900
C2117       C  0.26898959  0.00675939  0.84868505     0.75800
C2118       C  0.23211801  0.07194082  0.80611491     0.78200
Cd2119     Cd  0.27289460  0.06309951  0.84402201     1.37500
O2120       O  0.27006569  0.07938094  0.89032258    -0.56800
O2121       O  0.22684746  0.06545874  0.82959815    -0.55600
C2122       C  0.32693564  0.07077278  0.83194840     0.78200
O2123       O  0.25590109  0.07587198  0.80074167    -0.58000
O2124       O  0.26873662  0.10852924  0.85976532    -0.56400
O2125       O  0.27894266  0.01826940  0.82916696    -0.56400
O2126       O  0.31930004  0.06226843  0.85398389    -0.55600
O2127       O  0.14672706  0.97046312  0.75535849    -0.56800
C2128       C  0.12589716  0.89097710  0.75144634     0.75900
O2129       O  0.18584121  0.90650217  0.70411746    -0.57900
C2130       C  0.16668423  0.98316757  0.74795805     0.75800
C2131       C  0.20695297  0.91809425  0.78507028     0.78200
Cd2132     Cd  0.16784851  0.92727997  0.74479068     1.37500
O2133       O  0.12135361  0.91536460  0.75299671    -0.56800
O2134       O  0.18397060  0.92552416  0.79054155    -0.55600
C2135       C  0.17387663  0.92154092  0.68828548     0.78200
O2136       O  0.21181102  0.91360104  0.76094061    -0.58000
O2137       O  0.14942274  0.88401201  0.74866382    -0.56400
O2138       O  0.18615422  0.96999608  0.74007144    -0.56400
O2139       O  0.15998211  0.93919696  0.69872127    -0.55600
O2140       O  0.12851266  0.08401466  0.74647174    -0.56800
C2141       C  0.16804210  0.01180160  0.74766807     0.75900
O2142       O  0.20271284  0.08127348  0.70536089    -0.57900
C2143       C  0.13461184  0.10803281  0.74567929     0.75800
C2144       C  0.21200920  0.07297628  0.78550937     0.78200
Cd2145     Cd  0.17483754  0.06727718  0.74309757     1.37500
O2146       O  0.14925201  0.02678971  0.75418703    -0.56800
O2147       O  0.18849467  0.06695885  0.79004672    -0.55600
C2148       C  0.19079319  0.06755336  0.68827674     0.78200
O2149       O  0.21776695  0.07828882  0.76188748    -0.58000
O2150       O  0.18881495  0.02261309  0.74006287    -0.56400
O2151       O  0.15873303  0.11298889  0.74419430    -0.56400
O2152       O  0.17204625  0.05387739  0.69659992    -0.55600
O2153       O  0.87699003  0.25485788  0.92066408    -0.56800
C2154       C  0.83784019  0.26031444  0.98960903     0.75900
O2155       O  0.80052098  0.30108624  0.93655133    -0.57900
C2156       C  0.87276464  0.25632537  0.89604501     0.75800
C2157       C  0.79425098  0.22040410  0.92655990     0.78200
Cd2158     Cd  0.83098677  0.26261006  0.93377293     1.37500
O2159       O  0.85689523  0.25379688  0.97504549    -0.56800
O2160       O  0.81703338  0.21666966  0.93549431    -0.55600
C2161       C  0.81737308  0.31784531  0.92997602     0.78200
O2162       O  0.78905688  0.24322654  0.91832492    -0.58000
O2163       O  0.81726661  0.26783723  0.97823203    -0.56400
O2164       O  0.84921138  0.25944227  0.88883220    -0.56400
O2165       O  0.83988543  0.30909507  0.92460914    -0.55600
O2166       O  0.87965802  0.25306530  0.09153160    -0.56800
C2167       C  0.83847752  0.25979062  0.01834788     0.75900
O2168       O  0.79169202  0.24712470  0.08665310    -0.57900
C2169       C  0.87368235  0.25796217  0.11534045     0.75800
C2170       C  0.82859497  0.31851006  0.07495648     0.78200
Cd2171     Cd  0.83526548  0.26283583  0.07418105     1.37500
O2172       O  0.85823069  0.25271693  0.03179312    -0.56800
O2173       O  0.84917581  0.30760651  0.06656908    -0.55600
C2174       C  0.79620882  0.22322536  0.08146193     0.78200
O2175       O  0.81065454  0.30367663  0.08334098    -0.58000
O2176       O  0.81836866  0.26694359  0.03085166    -0.56400
O2177       O  0.85001377  0.26347471  0.12000167    -0.56400
O2178       O  0.81928745  0.21728886  0.07462380    -0.55600
O2179       O  0.74667540  0.11536862  0.91902935    -0.56800
C2180       C  0.73561014  0.15822342  0.99228430     0.75900
O2181       O  0.75063164  0.20393960  0.92235179    -0.57900
C2182       C  0.74064323  0.12120343  0.89544667     0.75800
C2183       C  0.68009377  0.16182141  0.93137238     0.78200
Cd2184     Cd  0.73551300  0.15982858  0.93582873     1.37500
O2185       O  0.74611911  0.13949711  0.97943433    -0.56800
O2186       O  0.69201108  0.14369736  0.94329764    -0.55600
C2187       C  0.77449406  0.19961291  0.92757848     0.78200
O2188       O  0.69399669  0.17958857  0.92104772    -0.58000
O2189       O  0.72576943  0.17672409  0.97902645    -0.56400
O2190       O  0.73472807  0.14478082  0.89085445    -0.56400
O2191       O  0.78035372  0.17680058  0.93538336    -0.55600
O2192       O  0.75176178  0.21012369  0.08595137    -0.56800
C2193       C  0.67898587  0.18012968  0.08664954     0.75900
O2194       O  0.74314929  0.14128952  0.03596819    -0.57900
C2195       C  0.77529811  0.20363345  0.08193497     0.75800
C2196       C  0.73869972  0.12430221  0.11477015     0.78200
Cd2197     Cd  0.73318207  0.16633511  0.07762653     1.37500
O2198       O  0.69668717  0.19110110  0.10024484    -0.56800
O2199       O  0.73950588  0.14810060  0.12171978    -0.55600
C2200       C  0.73485268  0.15950123  0.02119524     0.78200
O2201       O  0.73676296  0.11960413  0.09029695    -0.58000
O2202       O  0.68650402  0.16336430  0.06982897    -0.56400
O2203       O  0.77967811  0.17966874  0.07714337    -0.56400
O2204       O  0.72580029  0.17969646  0.03251790    -0.55600
O2205       O  0.08522433  0.25335868  0.80676712    -0.56800
C2206       C  0.07755375  0.32184881  0.85345415     0.75900
O2207       O  0.03208572  0.25052659  0.87089792    -0.57900
C2208       C  0.08273109  0.22890256  0.81028375     0.75800
C2209       C  0.11604909  0.25934260  0.89062184     0.78200
Cd2210     Cd  0.07499630  0.26572228  0.85312900     1.37500
O2211       O  0.08820537  0.30815712  0.83545845    -0.56800
O2212       O  0.11985595  0.26383347  0.86643457    -0.55600
C2213       C  0.01962099  0.26066339  0.85171320     0.78200
O2214       O  0.09267763  0.25500051  0.89778673    -0.58000
O2215       O  0.06620171  0.30966674  0.87180424    -0.56400
O2216       O  0.07876654  0.22147574  0.83375419    -0.56400
O2217       O  0.03273900  0.27293632  0.83474495    -0.55600
O2218       O  0.97594243  0.25170124  0.86652211    -0.56800
C2219       C  0.89420172  0.25574936  0.87677118     0.75900
O2220       O  0.92658789  0.29808480  0.80989133    -0.57900
C2221       C  0.99129873  0.25884725  0.84835747     0.75800
C2222       C  0.93093524  0.21606642  0.80255419     0.78200
Cd2223     Cd  0.93610808  0.25974315  0.83890179     1.37500
O2224       O  0.91779926  0.25234881  0.88361404    -0.56800
O2225       O  0.93832903  0.21293764  0.82618435    -0.55600
C2226       C  0.93236640  0.31501632  0.82734852     0.78200
O2227       O  0.92483734  0.23917931  0.79587604    -0.58000
O2228       O  0.88999028  0.25971899  0.85251342    -0.56400
O2229       O  0.98109598  0.26515818  0.82654895    -0.56400
O2230       O  0.94022409  0.30637048  0.84930565    -0.55600
O2231       O  0.98384030  0.13599537  0.75557235    -0.56800
C2232       C  0.89873406  0.11492910  0.74904177     0.75900
O2233       O  0.92553588  0.19773991  0.75931801    -0.57900
C2234       C  0.99492059  0.15591746  0.74564258     0.75800
C2235       C  0.93572313  0.15695306  0.68869637     0.78200
Cd2236     Cd  0.93911926  0.15354126  0.74453991     1.37500
O2237       O  0.92204163  0.10882278  0.75532936    -0.56800
O2238       O  0.94465296  0.13663560  0.69977342    -0.55600
C2239       C  0.93104047  0.19423902  0.78344599     0.78200
O2240       O  0.92778563  0.17548330  0.70345315    -0.58000
O2241       O  0.89451437  0.13857049  0.74298362    -0.56400
O2242       O  0.98032733  0.17306423  0.73539482    -0.56400
O2243       O  0.93805525  0.17133320  0.79001722    -0.55600
O2244       O  0.03976575  0.14320386  0.75318889    -0.56800
C2245       C  0.11503076  0.12937131  0.74599198     0.75900
O2246       O  0.10238736  0.19006637  0.70586616    -0.57900
C2247       C  0.02320376  0.16023525  0.74587810     0.75800
C2248       C  0.08289063  0.21005365  0.78813118     0.78200
Cd2249     Cd  0.07781552  0.17296718  0.74431786     1.37500
O2250       O  0.09066012  0.12522555  0.74525582    -0.56800
O2251       O  0.07885924  0.18592853  0.79168773    -0.55600
C2252       C  0.08337369  0.18966177  0.68982234     0.78200
O2253       O  0.08575709  0.21715066  0.76446211    -0.58000
O2254       O  0.12195130  0.15311962  0.74654975    -0.56400
O2255       O  0.03205916  0.18207332  0.73849566    -0.56400
O2256       O  0.06150373  0.18348047  0.69931078    -0.55600
loop_ 
_geom_bond_atom_site_label_1 
_geom_bond_atom_site_label_2 
_geom_bond_distance 
_geom_bond_site_symmetry_2 
_ccdc_geom_bond_type 
N1            C6   1.353       .  A
N1            C5   1.353       .  A
N1           H33   1.039       .  S
N2            C9   1.352       .  A
N2           C10   1.349       .  A
N3            C8   1.355       .  A
N3            C7   1.350       .  A
N3           H34   1.044       .  S
N4           C11   1.348       .  A
N4           C12   1.351       .  A
C5           C13   1.387       .  A
C5           C21   1.420       .  A
C6           C22   1.420       .  A
C6           C14   1.388       .  A
C7           C15   1.383       .  A
C7           C24   1.406       .  A
C8           C23   1.418       .  A
C8           C16   1.389       .  A
C9           C21   1.411       .  A
C9           C17   1.386       .  A
C10          C24   1.398       .  A
C10          C18   1.383       .  A
C11          C19   1.386       .  A
C11          C22   1.418       .  A
C12          C20   1.389       .  A
C12          C23   1.423       .  A
C13          C14   1.383       .  A
C13          H25   1.082       .  S
C14          H26   1.082       .  S
C15          C16   1.372       .  A
C15          H27   1.081       .  S
C16          H28   1.081   1_655  S
C17          C18   1.368       .  A
C17          H29   1.081       .  S
C18          H30   1.081       .  S
C19          C20   1.381       .  A
C19          H31   1.082       .  S
C20          H32   1.082       .  S
C21         C158   1.510       .  S
C22        C1901   1.486       .  S
C23          C58   1.521   1_655  S
C24          C91   1.526       .  S
N35          C40   1.346       .  A
N35          C39   1.349       .  A
N35          H67   1.037       .  S
N36          C43   1.354       .  A
N36          C44   1.351       .  A
N37          C42   1.357       .  A
N37          C41   1.355       .  A
N37          H68   1.043       .  S
N38          C45   1.356       .  A
N38          C46   1.355       .  A
C39          C47   1.393       .  A
C39          C55   1.422       .  A
C40          C56   1.412       .  A
C40          C48   1.384       .  A
C41          C49   1.392       .  A
C41          C58   1.430       .  A
C42          C57   1.425       .  A
C42          C50   1.385       .  A
C43          C55   1.421       .  A
C43          C51   1.388       .  A
C44          C58   1.419       .  A
C44          C52   1.386       .  A
C45          C53   1.386       .  A
C45          C56   1.410       .  A
C46          C54   1.383       .  A
C46          C57   1.399       .  A
C47          C48   1.389       .  A
C47          H59   1.082       .  S
C48          H60   1.082       .  S
C49          C50   1.386       .  A
C49          H61   1.082       .  S
C50          H62   1.082       .  S
C51          C52   1.372       .  A
C51          H63   1.081       .  S
C52          H64   1.082   1_455  S
C53          C54   1.363       .  A
C53          H65   1.083       .  S
C54          H66   1.083       .  S
C55        C1910   1.483       .  S
C56         C294   1.513       .  S
C57         C125   1.530       .  S
N69          C74   1.352       .  A
N69          C73   1.352       .  A
N69         H101   1.044       .  S
N70          C77   1.350       .  A
N70          C78   1.346       .  A
N71          C76   1.351       .  A
N71          C75   1.344       .  A
N71         H102   1.041       .  S
N72          C79   1.347       .  A
N72          C80   1.348       .  A
C73          C81   1.386       .  A
C73          C89   1.411       .  A
C74          C90   1.418       .  A
C74          C82   1.389       .  A
C75          C83   1.381       .  A
C75          C92   1.398       .  A
C76          C91   1.422       .  A
C76          C84   1.393       .  A
C77          C89   1.411       .  A
C77          C85   1.388       .  A
C78          C92   1.413       .  A
C78          C86   1.387       .  A
C79          C87   1.385       .  A
C79          C90   1.414       .  A
C80          C88   1.391       .  A
C80          C91   1.427       .  A
C81          C82   1.374       .  A
C81          H93   1.080       .  S
C82          H94   1.082       .  S
C83          C84   1.379       .  A
C83          H95   1.082       .  S
C84          H96   1.082       .  S
C85          C86   1.382       .  A
C85          H97   1.082       .  S
C86          H98   1.082   1_655  S
C87          C88   1.379       .  A
C87          H99   1.082       .  S
C88         H100   1.081       .  S
C89        C2226   1.481       .  S
C90         C225   1.509       .  S
C92         C124   1.524   1_655  S
N103        C108   1.350       .  A
N103        C107   1.352       .  A
N103        H135   1.042       .  S
N104        C111   1.347       .  A
N104        C112   1.347       .  A
N105        C110   1.358       .  A
N105        C109   1.357       .  A
N105        H136   1.044       .  S
N106        C113   1.354       .  A
N106        C114   1.357       .  A
C107        C115   1.380       .  A
C107        C123   1.397       .  A
C108        C124   1.416       .  A
C108        C116   1.391       .  A
C109        C117   1.384       .  A
C109        C126   1.425       .  A
C110        C125   1.433       .  A
C110        C118   1.392       .  A
C111        C123   1.397       .  A
C111        C119   1.381       .  A
C112        C126   1.414       .  A
C112        C120   1.389       .  A
C113        C121   1.386       .  A
C113        C124   1.420       .  A
C114        C122   1.382       .  A
C114        C125   1.417       .  A
C115        C116   1.366       .  A
C115        H127   1.082       .  S
C116        H128   1.080   1_455  S
C117        C118   1.382       .  A
C117        H129   1.082       .  S
C118        H130   1.078       .  S
C119        C120   1.375       .  A
C119        H131   1.082       .  S
C120        H132   1.082       .  S
C121        C122   1.372       .  A
C121        H133   1.080   1_455  S
C122        H134   1.081       .  S
C123       C2206   1.474       .  S
C126        C361   1.515       .  S
N137        C142   1.351       .  A
N137        C141   1.349       .  A
N137        H169   1.044       .  S
N138        C145   1.347       .  A
N138        C146   1.347       .  A
N139        C144   1.347       .  A
N139        C143   1.350       .  A
N139        H170   1.045       .  S
N140        C147   1.349       .  A
N140        C148   1.350       .  A
C141        C149   1.387       .  A
C141        C157   1.408       .  A
C142        C158   1.415       .  A
C142        C150   1.388       .  A
C143        C151   1.389       .  A
C143        C160   1.416       .  A
C144        C159   1.403       .  A
C144        C152   1.381       .  A
C145        C157   1.411       .  A
C145        C153   1.387       .  A
C146        C160   1.416       .  A
C146        C154   1.389       .  A
C147        C155   1.387       .  A
C147        C158   1.419       .  A
C148        C156   1.387       .  A
C148        C159   1.418       .  A
C149        C150   1.374       .  A
C149        H161   1.081       .  S
C150        H162   1.081       .  S
C151        C152   1.377       .  A
C151        H163   1.080   1_556  S
C152        H164   1.081       .  S
C153        C154   1.385       .  A
C153        H165   1.082       .  S
C154        H166   1.082   1_556  S
C155        C156   1.383       .  A
C155        H167   1.082       .  S
C156        H168   1.082       .  S
C157       C1823   1.473       .  S
C159        C228   1.506       .  S
C160        C194   1.507   1_556  S
N171        C176   1.348       .  A
N171        C175   1.352       .  A
N171        H203   1.041       .  S
N172        C179   1.350       .  A
N172        C180   1.349       .  A
N173        C178   1.354       .  A
N173        C177   1.349       .  A
N173        H204   1.042       .  S
N174        C181   1.350       .  A
N174        C182   1.351       .  A
C175        C183   1.386       .  A
C175        C191   1.414       .  A
C176        C192   1.418       .  A
C176        C184   1.390       .  A
C177        C185   1.388       .  A
C177        C194   1.419       .  A
C178        C193   1.422       .  A
C178        C186   1.388       .  A
C179        C191   1.409       .  A
C179        C187   1.386       .  A
C180        C194   1.415       .  A
C180        C188   1.388       .  A
C181        C189   1.387       .  A
C181        C192   1.417       .  A
C182        C190   1.381       .  A
C182        C193   1.411       .  A
C183        C184   1.387       .  A
C183        H195   1.082       .  S
C184        H196   1.082       .  S
C185        C186   1.387       .  A
C185        H197   1.082       .  S
C186        H198   1.082       .  S
C187        C188   1.371       .  A
C187        H199   1.081       .  S
C188        H200   1.081       .  S
C189        C190   1.376       .  A
C189        H201   1.079       .  S
C190        H202   1.080       .  S
C191       C1836   1.479       .  S
C192        C429   1.504       .  S
C193        C261   1.518       .  S
N205        C210   1.348       .  A
N205        C209   1.352       .  A
N205        H237   1.039       .  S
N206        C213   1.350       .  A
N206        C214   1.353       .  A
N207        C212   1.343       .  A
N207        C211   1.348       .  A
N207        H238   1.038       .  S
N208        C215   1.363       .  A
N208        C216   1.359       .  A
C209        C217   1.391       .  A
C209        C225   1.420       .  A
C210        C226   1.407       .  A
C210        C218   1.384       .  A
C211        C219   1.395       .  A
C211        C228   1.426       .  A
C212        C227   1.406       .  A
C212        C220   1.381       .  A
C213        C225   1.417       .  A
C213        C221   1.388       .  A
C214        C228   1.412       .  A
C214        C222   1.382       .  A
C215        C223   1.383       .  A
C215        C226   1.405       .  A
C216        C224   1.386       .  A
C216        C227   1.419       .  A
C217        C218   1.380       .  A
C217        H229   1.082       .  S
C218        H230   1.082       .  S
C219        C220   1.389       .  A
C219        H231   1.081       .  S
C220        H232   1.082       .  S
C221        C222   1.372       .  A
C221        H233   1.081       .  S
C222        H234   1.081       .  S
C223        C224   1.365       .  A
C223        H235   1.083       .  S
C224        H236   1.083       .  S
C226       C2161   1.478       .  S
C227        C262   1.522   1_556  S
N239        C244   1.350       .  A
N239        C243   1.346       .  A
N239        H271   1.044       .  S
N240        C247   1.349       .  A
N240        C248   1.350       .  A
N241        C246   1.356       .  A
N241        C245   1.357       .  A
N241        H272   1.045       .  S
N242        C249   1.350       .  A
N242        C250   1.348       .  A
C243        C251   1.387       .  A
C243        C259   1.405       .  A
C244        C260   1.416       .  A
C244        C252   1.390       .  A
C245        C253   1.389       .  A
C245        C262   1.432       .  A
C246        C261   1.420       .  A
C246        C254   1.382       .  A
C247        C259   1.408       .  A
C247        C255   1.384       .  A
C248        C262   1.417       .  A
C248        C256   1.389       .  A
C249        C257   1.385       .  A
C249        C260   1.414       .  A
C250        C258   1.390       .  A
C250        C261   1.419       .  A
C251        C252   1.379       .  A
C251        H263   1.081       .  S
C252        H264   1.081       .  S
C253        C254   1.382       .  A
C253        H265   1.079   1_554  S
C254        H266   1.080       .  S
C255        C256   1.380       .  A
C255        H267   1.082       .  S
C256        H268   1.081       .  S
C257        C258   1.381       .  A
C257        H269   1.082       .  S
C258        H270   1.082       .  S
C259       C2170   1.471       .  S
C260        C497   1.505       .  S
N273        C278   1.352       .  A
N273        C277   1.351       .  A
N273        H305   1.045       .  S
N274        C281   1.345       .  A
N274        C282   1.344       .  A
N275        C280   1.346       .  A
N275        C279   1.351       .  A
N275        H306   1.043       .  S
N276        C283   1.349       .  A
N276        C284   1.353       .  A
C277        C285   1.381       .  A
C277        C293   1.405       .  A
C278        C294   1.422       .  A
C278        C286   1.389       .  A
C279        C287   1.389       .  A
C279        C296   1.417       .  A
C280        C295   1.414       .  A
C280        C288   1.388       .  A
C281        C293   1.403       .  A
C281        C289   1.386       .  A
C282        C296   1.411       .  A
C282        C290   1.388       .  A
C283        C291   1.379       .  A
C283        C294   1.409       .  A
C284        C292   1.394       .  A
C284        C295   1.430       .  A
C285        C286   1.379       .  A
C285        H297   1.082       .  S
C286        H298   1.078       .  S
C287        C288   1.388       .  A
C287        H299   1.082   1_556  S
C288        H300   1.082       .  S
C289        C290   1.379       .  A
C289        H301   1.082       .  S
C290        H302   1.082   1_556  S
C291        C292   1.378       .  A
C291        H303   1.082       .  S
C292        H304   1.076       .  S
C293       C2083   1.473       .  S
C295        C364   1.520       .  S
C296        C329   1.501   1_556  S
N307        C312   1.344       .  A
N307        C311   1.340       .  A
N307        H339   1.046       .  S
N308        C315   1.353       .  A
N308        C316   1.347       .  A
N309        C314   1.355       .  A
N309        C313   1.362       .  A
N309        H340   1.044       .  S
N310        C317   1.354       .  A
N310        C318   1.346       .  A
C311        C319   1.387       .  A
C311        C327   1.397       .  A
C312        C328   1.386       .  A
C312        C320   1.383       .  A
C313        C321   1.385       .  A
C313        C330   1.423       .  A
C314        C329   1.417       .  A
C314        C322   1.380       .  A
C315        C327   1.411       .  A
C315        C323   1.381       .  A
C316        C330   1.430       .  A
C316        C324   1.395       .  A
C317        C325   1.383       .  A
C317        C328   1.409       .  A
C318        C326   1.391       .  A
C318        C329   1.416       .  A
C319        C320   1.378       .  A
C319        H331   1.082       .  S
C320        H332   1.082       .  S
C321        C322   1.368       .  A
C321        H333   1.069       .  S
C322        H334   1.081       .  S
C323        C324   1.383       .  A
C323        H335   1.082       .  S
C324        H336   1.081       .  S
C325        C326   1.378       .  A
C325        H337   1.080       .  S
C326        H338   1.082       .  S
C327        C463   1.519       .  S
C328       C2096   1.479       .  S
C330        C398   1.515       .  S
N341        C346   1.346       .  A
N341        C345   1.354       .  A
N341        H373   1.036       .  S
N342        C349   1.350       .  A
N342        C350   1.348       .  A
N343        C348   1.357       .  A
N343        C347   1.358       .  A
N343        H374   1.035       .  S
N344        C351   1.355       .  A
N344        C352   1.357       .  A
C345        C353   1.386       .  A
C345        C361   1.423       .  A
C346        C362   1.423       .  A
C346        C354   1.392       .  A
C347        C355   1.374       .  A
C347        C364   1.427       .  A
C348        C363   1.440       .  A
C348        C356   1.392       .  A
C349        C361   1.403       .  A
C349        C357   1.389       .  A
C350        C364   1.391       .  A
C350        C358   1.382       .  A
C351        C359   1.385       .  A
C351        C362   1.424       .  A
C352        C360   1.389       .  A
C352        C363   1.434       .  A
C353        C354   1.386       .  A
C353        H365   1.082       .  S
C354        H366   1.081       .  S
C355        C356   1.370       .  A
C355        H367   1.074       .  S
C356        H368   1.069   1_556  S
C357        C358   1.366       .  A
C357        H369   1.083       .  S
C358        H370   1.083       .  S
C359        C360   1.377       .  A
C359        H371   1.083       .  S
C360        H372   1.082   1_556  S
C362       C1647   1.484       .  S
C363        C397   1.529   1_556  S
N375        C380   1.346       .  A
N375        C379   1.350       .  A
N375        H407   1.043       .  S
N376        C383   1.347       .  A
N376        C384   1.343       .  A
N377        C382   1.349       .  A
N377        C381   1.353       .  A
N377        H408   1.045       .  S
N378        C385   1.348       .  A
N378        C386   1.352       .  A
C379        C387   1.386       .  A
C379        C395   1.413       .  A
C380        C396   1.412       .  A
C380        C388   1.390       .  A
C381        C389   1.388       .  A
C381        C398   1.425       .  A
C382        C397   1.418       .  A
C382        C390   1.388       .  A
C383        C395   1.410       .  A
C383        C391   1.384       .  A
C384        C398   1.404       .  A
C384        C392   1.384       .  A
C385        C393   1.387       .  A
C385        C396   1.414       .  A
C386        C394   1.388       .  A
C386        C397   1.422       .  A
C387        C388   1.385       .  A
C387        H399   1.082       .  S
C388        H400   1.081       .  S
C389        C390   1.397       .  A
C389        H401   1.082       .  S
C390        H402   1.082       .  S
C391        C392   1.379       .  A
C391        H403   1.078       .  S
C392        H404   1.081       .  S
C393        C394   1.377       .  A
C393        H405   1.081       .  S
C394        H406   1.081       .  S
C395        C531   1.508       .  S
C396       C1641   1.472       .  S
N409        C414   1.349       .  A
N409        C413   1.350       .  A
N409        H441   1.044       .  S
N410        C417   1.348       .  A
N410        C418   1.349       .  A
N411        C416   1.352       .  A
N411        C415   1.350       .  A
N411        H442   1.045       .  S
N412        C419   1.348       .  A
N412        C420   1.347       .  A
C413        C421   1.389       .  A
C413        C429   1.416       .  A
C414        C430   1.409       .  A
C414        C422   1.386       .  A
C415        C423   1.381       .  A
C415        C432   1.407       .  A
C416        C431   1.418       .  A
C416        C424   1.389       .  A
C417        C429   1.413       .  A
C417        C425   1.386       .  A
C418        C432   1.417       .  A
C418        C426   1.389       .  A
C419        C427   1.387       .  A
C419        C430   1.410       .  A
C420        C428   1.388       .  A
C420        C431   1.415       .  A
C421        C422   1.377       .  A
C421        H433   1.081       .  S
C422        H434   1.081       .  S
C423        C424   1.376       .  A
C423        H435   1.081       .  S
C424        H436   1.080   1_655  S
C425        C426   1.382       .  A
C425        H437   1.082       .  S
C426        H438   1.082       .  S
C427        C428   1.383       .  A
C427        H439   1.082       .  S
C428        H440   1.082   1_655  S
C430       C2027   1.475       .  S
C431        C465   1.508   1_655  S
C432        C500   1.505       .  S
N443        C448   1.353       .  A
N443        C447   1.354       .  A
N443        H475   1.042       .  S
N444        C451   1.353       .  A
N444        C452   1.350       .  A
N445        C450   1.351       .  A
N445        C449   1.351       .  A
N445        H476   1.042       .  S
N446        C453   1.347       .  A
N446        C454   1.350       .  A
C447        C455   1.389       .  A
C447        C463   1.426       .  A
C448        C464   1.415       .  A
C448        C456   1.386       .  A
C449        C457   1.389       .  A
C449        C466   1.420       .  A
C450        C465   1.418       .  A
C450        C458   1.387       .  A
C451        C463   1.415       .  A
C451        C459   1.385       .  A
C452        C466   1.410       .  A
C452        C460   1.380       .  A
C453        C461   1.386       .  A
C453        C464   1.408       .  A
C454        C462   1.388       .  A
C454        C465   1.416       .  A
C455        C456   1.385       .  A
C455        H467   1.082       .  S
C456        H468   1.082       .  S
C457        C458   1.386       .  A
C457        H469   1.082       .  S
C458        H470   1.082       .  S
C459        C460   1.376       .  A
C459        H471   1.079       .  S
C460        H472   1.079       .  S
C461        C462   1.374       .  A
C461        H473   1.081       .  S
C462        H474   1.081   1_455  S
C464       C2044   1.477       .  S
C466        C534   1.512       .  S
N477        C482   1.349       .  A
N477        C481   1.349       .  A
N477        H509   1.039       .  S
N478        C485   1.350       .  A
N478        C486   1.348       .  A
N479        C484   1.348       .  A
N479        C483   1.351       .  A
N479        H510   1.042       .  S
N480        C487   1.351       .  A
N480        C488   1.353       .  A
C481        C489   1.387       .  A
C481        C497   1.417       .  A
C482        C498   1.414       .  A
C482        C490   1.389       .  A
C483        C491   1.390       .  A
C483        C500   1.420       .  A
C484        C499   1.413       .  A
C484        C492   1.386       .  A
C485        C497   1.414       .  A
C485        C493   1.387       .  A
C486        C500   1.405       .  A
C486        C494   1.381       .  A
C487        C495   1.386       .  A
C487        C498   1.414       .  A
C488        C496   1.387       .  A
C488        C499   1.420       .  A
C489        C490   1.386       .  A
C489        H501   1.082       .  S
C490        H502   1.082       .  S
C491        C492   1.385       .  A
C491        H503   1.082       .  S
C492        H504   1.082       .  S
C493        C494   1.375       .  A
C493        H505   1.080       .  S
C494        H506   1.080       .  S
C495        C496   1.374       .  A
C495        H507   1.081       .  S
C496        H508   1.081   1_655  S
C498       C1702   1.477       .  S
C499        C533   1.510   1_655  S
N511        C516   1.352       .  A
N511        C515   1.352       .  A
N511        H543   1.044       .  S
N512        C519   1.348       .  A
N512        C520   1.350       .  A
N513        C518   1.352       .  A
N513        C517   1.351       .  A
N513        H544   1.044       .  S
N514        C521   1.349       .  A
N514        C522   1.347       .  A
C515        C523   1.389       .  A
C515        C531   1.419       .  A
C516        C532   1.411       .  A
C516        C524   1.385       .  A
C517        C525   1.382       .  A
C517        C534   1.411       .  A
C518        C533   1.422       .  A
C518        C526   1.390       .  A
C519        C531   1.414       .  A
C519        C527   1.386       .  A
C520        C534   1.420       .  A
C520        C528   1.389       .  A
C521        C529   1.386       .  A
C521        C532   1.409       .  A
C522        C530   1.388       .  A
C522        C533   1.414       .  A
C523        C524   1.376       .  A
C523        H535   1.080       .  S
C524        H536   1.081       .  S
C525        C526   1.380       .  A
C525        H537   1.081       .  S
C526        H538   1.080       .  S
C527        C528   1.382       .  A
C527        H539   1.082       .  S
C528        H540   1.082       .  S
C529        C530   1.382       .  A
C529        H541   1.082       .  S
C530        H542   1.082       .  S
C532       C1693   1.480       .  S
N545        C550   1.350       .  A
N545        C549   1.347       .  A
N545        H577   1.042       .  S
N546        C553   1.354       .  A
N546        C554   1.350       .  A
N547        C552   1.360       .  A
N547        C551   1.354       .  A
N547        H578   1.045       .  S
N548        C555   1.347       .  A
N548        C556   1.347       .  A
C549        C557   1.387       .  A
C549        C565   1.412       .  A
C550        C566   1.413       .  A
C550        C558   1.390       .  A
C551        C559   1.384       .  A
C551        C568   1.413       .  A
C552        C567   1.409       .  A
C552        C560   1.387       .  A
C553        C565   1.429       .  A
C553        C561   1.385       .  A
C554        C568   1.429       .  A
C554        C562   1.386       .  A
C555        C563   1.387       .  A
C555        C566   1.411       .  A
C556        C564   1.386       .  A
C556        C567   1.415       .  A
C557        C558   1.385       .  A
C557        H569   1.082       .  S
C558        H570   1.082       .  S
C559        C560   1.376       .  A
C559        H571   1.083       .  S
C560        H572   1.083       .  S
C561        C562   1.381       .  A
C561        H573   1.072       .  S
C562        H574   1.080       .  S
C563        C564   1.376       .  A
C563        H575   1.080       .  S
C564        H576   1.082   1_565  S
C565        C702   1.528       .  S
C566       C1844   1.476       .  S
C567        C602   1.513   1_565  S
C568        C635   1.523       .  S
N579        C584   1.360       .  A
N579        C583   1.353       .  A
N579        H611   1.039       .  S
N580        C587   1.353       .  A
N580        C588   1.357       .  A
N581        C586   1.349       .  A
N581        C585   1.347       .  A
N581        H612   1.043       .  S
N582        C589   1.348       .  A
N582        C590   1.346       .  A
C583        C591   1.385       .  A
C583        C599   1.419       .  A
C584        C600   1.431       .  A
C584        C592   1.389       .  A
C585        C593   1.383       .  A
C585        C602   1.401       .  A
C586        C601   1.415       .  A
C586        C594   1.390       .  A
C587        C599   1.419       .  A
C587        C595   1.387       .  A
C588        C602   1.423       .  A
C588        C596   1.386       .  A
C589        C597   1.388       .  A
C589        C600   1.413       .  A
C590        C598   1.381       .  A
C590        C601   1.400       .  A
C591        C592   1.383       .  A
C591        H603   1.082       .  S
C592        H604   1.081       .  S
C593        C594   1.377       .  A
C593        H605   1.081       .  S
C594        H606   1.082       .  S
C595        C596   1.371       .  A
C595        H607   1.082       .  S
C596        H608   1.082   1_545  S
C597        C598   1.375       .  A
C597        H609   1.081       .  S
C598        H610   1.081       .  S
C599       C1862   1.486       .  S
C600        C838   1.519       .  S
C601        C670   1.496       .  S
N613        C618   1.343       .  A
N613        C617   1.349       .  A
N613        H645   1.042       .  S
N614        C621   1.353       .  A
N614        C622   1.349       .  A
N615        C620   1.358       .  A
N615        C619   1.344       .  A
N615        H646   1.042       .  S
N616        C623   1.346       .  A
N616        C624   1.348       .  A
C617        C625   1.387       .  A
C617        C633   1.405       .  A
C618        C634   1.409       .  A
C618        C626   1.388       .  A
C619        C627   1.384       .  A
C619        C636   1.413       .  A
C620        C635   1.431       .  A
C620        C628   1.393       .  A
C621        C633   1.408       .  A
C621        C629   1.383       .  A
C622        C636   1.419       .  A
C622        C630   1.390       .  A
C623        C631   1.389       .  A
C623        C634   1.414       .  A
C624        C632   1.385       .  A
C624        C635   1.411       .  A
C625        C626   1.382       .  A
C625        H637   1.082       .  S
C626        H638   1.082       .  S
C627        C628   1.388       .  A
C627        H639   1.082       .  S
C628        H640   1.079       .  S
C629        C630   1.375       .  A
C629        H641   1.082       .  S
C630        H642   1.080   1_565  S
C631        C632   1.381       .  A
C631        H643   1.082       .  S
C632        H644   1.082       .  S
C633       C2109   1.476       .  S
C634        C770   1.491       .  S
C636        C669   1.498   1_565  S
N647        C652   1.350       .  A
N647        C651   1.353       .  A
N647        H679   1.044       .  S
N648        C655   1.342       .  A
N648        C656   1.344       .  A
N649        C654   1.348       .  A
N649        C653   1.346       .  A
N649        H680   1.045       .  S
N650        C657   1.344       .  A
N650        C658   1.346       .  A
C651        C659   1.386       .  A
C651        C667   1.417       .  A
C652        C668   1.414       .  A
C652        C660   1.388       .  A
C653        C661   1.384       .  A
C653        C670   1.405       .  A
C654        C669   1.415       .  A
C654        C662   1.391       .  A
C655        C667   1.408       .  A
C655        C663   1.387       .  A
C656        C670   1.412       .  A
C656        C664   1.389       .  A
C657        C665   1.388       .  A
C657        C668   1.408       .  A
C658        C666   1.387       .  A
C658        C669   1.412       .  A
C659        C660   1.376       .  A
C659        H671   1.082       .  S
C660        H672   1.081       .  S
C661        C662   1.378       .  A
C661        H673   1.082       .  S
C662        H674   1.080   1_545  S
C663        C664   1.384       .  A
C663        H675   1.082       .  S
C664        H676   1.081       .  S
C665        C666   1.382       .  A
C665        H677   1.082       .  S
C666        H678   1.082       .  S
C667        C905   1.505       .  S
C668       C2122   1.473       .  S
N681        C686   1.355       .  A
N681        C685   1.351       .  A
N681        H713   1.045       .  S
N682        C689   1.347       .  A
N682        C690   1.348       .  A
N683        C688   1.345       .  A
N683        C687   1.347       .  A
N683        H714   1.044       .  S
N684        C691   1.341       .  A
N684        C692   1.347       .  A
C685        C693   1.378       .  A
C685        C701   1.400       .  A
C686        C702   1.429       .  A
C686        C694   1.393       .  A
C687        C695   1.390       .  A
C687        C704   1.417       .  A
C688        C703   1.415       .  A
C688        C696   1.388       .  A
C689        C701   1.404       .  A
C689        C697   1.384       .  A
C690        C704   1.417       .  A
C690        C698   1.388       .  A
C691        C699   1.385       .  A
C691        C702   1.399       .  A
C692        C700   1.388       .  A
C692        C703   1.412       .  A
C693        C694   1.374       .  A
C693        H705   1.083       .  S
C694        H706   1.074       .  S
C695        C696   1.389       .  A
C695        H707   1.082   1_556  S
C696        H708   1.082       .  S
C697        C698   1.380       .  A
C697        H709   1.082       .  S
C698        H710   1.082   1_556  S
C699        C700   1.391       .  A
C699        H711   1.082       .  S
C700        H712   1.082       .  S
C701       C1797   1.476       .  S
C703        C771   1.518       .  S
C704        C737   1.504   1_556  S
N715        C720   1.349       .  A
N715        C719   1.344       .  A
N715        H747   1.046       .  S
N716        C723   1.351       .  A
N716        C724   1.349       .  A
N717        C722   1.356       .  A
N717        C721   1.365       .  A
N717        H748   1.044       .  S
N718        C725   1.358       .  A
N718        C726   1.349       .  A
C719        C727   1.388       .  A
C719        C735   1.406       .  A
C720        C736   1.392       .  A
C720        C728   1.383       .  A
C721        C729   1.385       .  A
C721        C738   1.429       .  A
C722        C737   1.420       .  A
C722        C730   1.380       .  A
C723        C735   1.411       .  A
C723        C731   1.382       .  A
C724        C738   1.429       .  A
C724        C732   1.393       .  A
C725        C733   1.385       .  A
C725        C736   1.414       .  A
C726        C734   1.390       .  A
C726        C737   1.417       .  A
C727        C728   1.381       .  A
C727        H739   1.082       .  S
C728        H740   1.082       .  S
C729        C730   1.370       .  A
C729        H741   1.068       .  S
C730        H742   1.081       .  S
C731        C732   1.383       .  A
C731        H743   1.082       .  S
C732        H744   1.081       .  S
C733        C734   1.375       .  A
C733        H745   1.080       .  S
C734        H746   1.083       .  S
C735        C973   1.520       .  S
C736       C1806   1.490       .  S
C738        C805   1.527       .  S
N749        C754   1.347       .  A
N749        C753   1.346       .  A
N749        H781   1.043       .  S
N750        C757   1.352       .  A
N750        C758   1.346       .  A
N751        C756   1.360       .  A
N751        C755   1.364       .  A
N751        H782   1.040       .  S
N752        C759   1.348       .  A
N752        C760   1.348       .  A
C753        C761   1.390       .  A
C753        C769   1.409       .  A
C754        C770   1.406       .  A
C754        C762   1.385       .  A
C755        C763   1.387       .  A
C755        C772   1.437       .  A
C756        C771   1.437       .  A
C756        C764   1.381       .  A
C757        C769   1.416       .  A
C757        C765   1.385       .  A
C758        C772   1.418       .  A
C758        C766   1.389       .  A
C759        C767   1.375       .  A
C759        C770   1.399       .  A
C760        C768   1.390       .  A
C760        C771   1.416       .  A
C761        C762   1.377       .  A
C761        H773   1.080       .  S
C762        H774   1.082       .  S
C763        C764   1.368       .  A
C763        H775   1.069   1_556  S
C764        H776   1.076       .  S
C765        C766   1.385       .  A
C765        H777   1.082       .  S
C766        H778   1.082   1_556  S
C767        C768   1.365       .  A
C767        H779   1.082       .  S
C768        H780   1.065       .  S
C769       C2057   1.482       .  S
C772        C806   1.526   1_556  S
N783        C788   1.351       .  A
N783        C787   1.353       .  A
N783        H815   1.043       .  S
N784        C791   1.351       .  A
N784        C792   1.351       .  A
N785        C790   1.352       .  A
N785        C789   1.348       .  A
N785        H816   1.045       .  S
N786        C793   1.349       .  A
N786        C794   1.351       .  A
C787        C795   1.386       .  A
C787        C803   1.415       .  A
C788        C804   1.424       .  A
C788        C796   1.390       .  A
C789        C797   1.388       .  A
C789        C806   1.416       .  A
C790        C805   1.422       .  A
C790        C798   1.387       .  A
C791        C803   1.410       .  A
C791        C799   1.384       .  A
C792        C806   1.424       .  A
C792        C800   1.389       .  A
C793        C801   1.384       .  A
C793        C804   1.413       .  A
C794        C802   1.382       .  A
C794        C805   1.412       .  A
C795        C796   1.385       .  A
C795        H807   1.082       .  S
C796        H808   1.082       .  S
C797        C798   1.396       .  A
C797        H809   1.082       .  S
C798        H810   1.082       .  S
C799        C800   1.377       .  A
C799        H811   1.081       .  S
C800        H812   1.079       .  S
C801        C802   1.377       .  A
C801        H813   1.080       .  S
C802        H814   1.079       .  S
C803       C2066   1.487       .  S
C804       C1042   1.513       .  S
N817        C822   1.342       .  A
N817        C821   1.346       .  A
N817        H849   1.046       .  S
N818        C825   1.352       .  A
N818        C826   1.347       .  A
N819        C824   1.359       .  A
N819        C823   1.351       .  A
N819        H850   1.043       .  S
N820        C827   1.351       .  A
N820        C828   1.348       .  A
C821        C829   1.383       .  A
C821        C837   1.386       .  A
C822        C838   1.401       .  A
C822        C830   1.387       .  A
C823        C831   1.385       .  A
C823        C840   1.417       .  A
C824        C839   1.423       .  A
C824        C832   1.388       .  A
C825        C837   1.406       .  A
C825        C833   1.384       .  A
C826        C840   1.412       .  A
C826        C834   1.389       .  A
C827        C835   1.384       .  A
C827        C838   1.416       .  A
C828        C836   1.392       .  A
C828        C839   1.428       .  A
C829        C830   1.379       .  A
C829        H841   1.082       .  S
C830        H842   1.082       .  S
C831        C832   1.373       .  A
C831        H843   1.082   1_556  S
C832        H844   1.074       .  S
C833        C834   1.374       .  A
C833        H845   1.080       .  S
C834        H846   1.082   1_556  S
C835        C836   1.385       .  A
C835        H847   1.082       .  S
C836        H848   1.080       .  S
C837       C2183   1.470       .  S
C839        C908   1.514       .  S
C840        C873   1.498   1_556  S
N851        C856   1.350       .  A
N851        C855   1.349       .  A
N851        H883   1.039       .  S
N852        C859   1.346       .  A
N852        C860   1.356       .  A
N853        C858   1.346       .  A
N853        C857   1.354       .  A
N853        H884   1.042       .  S
N854        C861   1.356       .  A
N854        C862   1.353       .  A
C855        C863   1.388       .  A
C855        C871   1.417       .  A
C856        C872   1.419       .  A
C856        C864   1.390       .  A
C857        C865   1.382       .  A
C857        C874   1.409       .  A
C858        C873   1.418       .  A
C858        C866   1.393       .  A
C859        C871   1.410       .  A
C859        C867   1.388       .  A
C860        C874   1.401       .  A
C860        C868   1.381       .  A
C861        C869   1.384       .  A
C861        C872   1.418       .  A
C862        C870   1.389       .  A
C862        C873   1.422       .  A
C863        C864   1.386       .  A
C863        H875   1.082       .  S
C864        H876   1.082       .  S
C865        C866   1.380       .  A
C865        H877   1.082       .  S
C866        H878   1.082       .  S
C867        C868   1.380       .  A
C867        H879   1.082       .  S
C868        H880   1.082       .  S
C869        C870   1.372       .  A
C869        H881   1.083       .  S
C870        H882   1.082       .  S
C871       C1007   1.526       .  S
C872       C2193   1.485       .  S
C874        C941   1.522       .  S
N885        C890   1.346       .  A
N885        C889   1.353       .  A
N885        H917   1.044       .  S
N886        C893   1.345       .  A
N886        C894   1.348       .  A
N887        C892   1.345       .  A
N887        C891   1.354       .  A
N887        H918   1.045       .  S
N888        C895   1.358       .  A
N888        C896   1.359       .  A
C889        C897   1.390       .  A
C889        C905   1.418       .  A
C890        C906   1.405       .  A
C890        C898   1.384       .  A
C891        C899   1.385       .  A
C891        C908   1.410       .  A
C892        C907   1.407       .  A
C892        C900   1.388       .  A
C893        C905   1.415       .  A
C893        C901   1.389       .  A
C894        C908   1.403       .  A
C894        C902   1.382       .  A
C895        C903   1.385       .  A
C895        C906   1.405       .  A
C896        C904   1.382       .  A
C896        C907   1.416       .  A
C897        C898   1.378       .  A
C897        H909   1.082       .  S
C898        H910   1.082       .  S
C899        C900   1.390       .  A
C899        H911   1.082       .  S
C900        H912   1.082       .  S
C901        C902   1.378       .  A
C901        H913   1.081       .  S
C902        H914   1.081       .  S
C903        C904   1.370       .  A
C903        H915   1.083       .  S
C904        H916   1.082       .  S
C906       C1680   1.487       .  S
C907        C942   1.536   1_556  S
N919        C924   1.347       .  A
N919        C923   1.340       .  A
N919        H951   1.044       .  S
N920        C927   1.356       .  A
N920        C928   1.349       .  A
N921        C926   1.368       .  A
N921        C925   1.365       .  A
N921        H952   1.031       .  S
N922        C929   1.344       .  A
N922        C930   1.343       .  A
C923        C931   1.387       .  A
C923        C939   1.397       .  A
C924        C940   1.401       .  A
C924        C932   1.387       .  A
C925        C933   1.395       .  A
C925        C942   1.456       .  A
C926        C941   1.444       .  A
C926        C934   1.381       .  A
C927        C939   1.412       .  A
C927        C935   1.380       .  A
C928        C942   1.432       .  A
C928        C936   1.394       .  A
C929        C937   1.379       .  A
C929        C940   1.402       .  A
C930        C938   1.395       .  A
C930        C941   1.419       .  A
C931        C932   1.376       .  A
C931        H943   1.083       .  S
C932        H944   1.082       .  S
C933        C934   1.376       .  A
C933        H945   1.073       .  S
C934        H946   1.082       .  S
C935        C936   1.381       .  A
C935        H947   1.082       .  S
C936        H948   1.082       .  S
C937        C938   1.370       .  A
C937        H949   1.083       .  S
C938        H950   1.075       .  S
C939       C1662   1.481       .  S
C940       C1076   1.485       .  S
N953        C958   1.353       .  A
N953        C957   1.348       .  A
N953        H985   1.041       .  S
N954        C961   1.356       .  A
N954        C962   1.355       .  A
N955        C960   1.349       .  A
N955        C959   1.355       .  A
N955        H986   1.043       .  S
N956        C963   1.347       .  A
N956        C964   1.346       .  A
C957        C965   1.390       .  A
C957        C973   1.422       .  A
C958        C974   1.419       .  A
C958        C966   1.387       .  A
C959        C967   1.391       .  A
C959        C976   1.428       .  A
C960        C975   1.412       .  A
C960        C968   1.380       .  A
C961        C973   1.422       .  A
C961        C969   1.385       .  A
C962        C976   1.416       .  A
C962        C970   1.381       .  A
C963        C971   1.388       .  A
C963        C974   1.409       .  A
C964        C972   1.385       .  A
C964        C975   1.407       .  A
C965        C966   1.389       .  A
C965        H977   1.082       .  S
C966        H978   1.082       .  S
C967        C968   1.384       .  A
C967        H979   1.071       .  S
C968        H980   1.082       .  S
C969        C970   1.378       .  A
C969        H981   1.079       .  S
C970        H982   1.079       .  S
C971        C972   1.371       .  A
C971        H983   1.080       .  S
C972        H984   1.082       .  S
C974       C1979   1.484       .  S
C975       C1009   1.496   1_565  S
C976       C1043   1.532       .  S
N987        C992   1.352       .  A
N987        C991   1.353       .  A
N987       H1019   1.045       .  S
N988        C995   1.352       .  A
N988        C996   1.349       .  A
N989        C994   1.350       .  A
N989        C993   1.346       .  A
N989       H1020   1.044       .  S
N990        C997   1.346       .  A
N990        C998   1.348       .  A
C991        C999   1.388       .  A
C991       C1007   1.422       .  A
C992       C1008   1.413       .  A
C992       C1000   1.387       .  A
C993       C1001   1.385       .  A
C993       C1010   1.403       .  A
C994       C1009   1.412       .  A
C994       C1002   1.389       .  A
C995       C1007   1.420       .  A
C995       C1003   1.388       .  A
C996       C1010   1.416       .  A
C996       C1004   1.386       .  A
C997       C1005   1.388       .  A
C997       C1008   1.408       .  A
C998       C1006   1.388       .  A
C998       C1009   1.415       .  A
C999       C1000   1.381       .  A
C999       H1011   1.082       .  S
C1000      H1012   1.081       .  S
C1001      C1002   1.375       .  A
C1001      H1013   1.082       .  S
C1002      H1014   1.082   1_545  S
C1003      C1004   1.382       .  A
C1003      H1015   1.081       .  S
C1004      H1016   1.082       .  S
C1005      C1006   1.380       .  A
C1005      H1017   1.082       .  S
C1006      H1018   1.082   1_545  S
C1008      C1992   1.474       .  S
C1010      C1077   1.495       .  S
N1021      C1026   1.343       .  A
N1021      C1025   1.346       .  A
N1021      H1053   1.046       .  S
N1022      C1029   1.353       .  A
N1022      C1030   1.346       .  A
N1023      C1028   1.354       .  A
N1023      C1027   1.356       .  A
N1023      H1054   1.045       .  S
N1024      C1031   1.350       .  A
N1024      C1032   1.348       .  A
C1025      C1033   1.385       .  A
C1025      C1041   1.390       .  A
C1026      C1042   1.399       .  A
C1026      C1034   1.385       .  A
C1027      C1035   1.382       .  A
C1027      C1044   1.411       .  A
C1028      C1043   1.413       .  A
C1028      C1036   1.386       .  A
C1029      C1041   1.409       .  A
C1029      C1037   1.384       .  A
C1030      C1044   1.416       .  A
C1030      C1038   1.390       .  A
C1031      C1039   1.384       .  A
C1031      C1042   1.411       .  A
C1032      C1040   1.391       .  A
C1032      C1043   1.423       .  A
C1033      C1034   1.378       .  A
C1033      H1045   1.082       .  S
C1034      H1046   1.082       .  S
C1035      C1036   1.382       .  A
C1035      H1047   1.082       .  S
C1036      H1048   1.082       .  S
C1037      C1038   1.380       .  A
C1037      H1049   1.081       .  S
C1038      H1050   1.082       .  S
C1039      C1040   1.383       .  A
C1039      H1051   1.082       .  S
C1040      H1052   1.081       .  S
C1041      C1745   1.481       .  S
C1044      C1078   1.509   1_565  S
N1055      C1060   1.351       .  A
N1055      C1059   1.346       .  A
N1055      H1087   1.041       .  S
N1056      C1063   1.353       .  A
N1056      C1064   1.354       .  A
N1057      C1062   1.354       .  A
N1057      C1061   1.345       .  A
N1057      H1088   1.043       .  S
N1058      C1065   1.340       .  A
N1058      C1066   1.342       .  A
C1059      C1067   1.388       .  A
C1059      C1075   1.405       .  A
C1060      C1076   1.410       .  A
C1060      C1068   1.386       .  A
C1061      C1069   1.383       .  A
C1061      C1078   1.404       .  A
C1062      C1077   1.418       .  A
C1062      C1070   1.388       .  A
C1063      C1075   1.415       .  A
C1063      C1071   1.387       .  A
C1064      C1078   1.419       .  A
C1064      C1072   1.387       .  A
C1065      C1073   1.390       .  A
C1065      C1076   1.405       .  A
C1066      C1074   1.382       .  A
C1066      C1077   1.396       .  A
C1067      C1068   1.377       .  A
C1067      H1079   1.083       .  S
C1068      H1080   1.082       .  S
C1069      C1070   1.378       .  A
C1069      H1081   1.078   1_545  S
C1070      H1082   1.082       .  S
C1071      C1072   1.377       .  A
C1071      H1083   1.082       .  S
C1072      H1084   1.082   1_545  S
C1073      C1074   1.375       .  A
C1073      H1085   1.082       .  S
C1074      H1086   1.082       .  S
C1075      C1758   1.468       .  S
N1089      C1094   1.360       .  A
N1089      C1093   1.350       .  A
N1089      H1121   1.041       .  S
N1090      C1097   1.346       .  A
N1090      C1098   1.351       .  A
N1091      C1096   1.346       .  A
N1091      C1095   1.355       .  A
N1091      H1122   1.036       .  S
N1092      C1099   1.357       .  A
N1092      C1100   1.350       .  A
C1093      C1101   1.388       .  A
C1093      C1109   1.416       .  A
C1094      C1110   1.427       .  A
C1094      C1102   1.387       .  A
C1095      C1103   1.392       .  A
C1095      C1112   1.432       .  A
C1096      C1111   1.414       .  A
C1096      C1104   1.378       .  A
C1097      C1109   1.416       .  A
C1097      C1105   1.388       .  A
C1098      C1112   1.427       .  A
C1098      C1106   1.388       .  A
C1099      C1107   1.385       .  A
C1099      C1110   1.399       .  A
C1100      C1108   1.382       .  A
C1100      C1111   1.403       .  A
C1101      C1102   1.375       .  A
C1101      H1113   1.081       .  S
C1102      H1114   1.081       .  S
C1103      C1104   1.374       .  A
C1103      H1115   1.067   1_655  S
C1104      H1116   1.080       .  S
C1105      C1106   1.383       .  A
C1105      H1117   1.082       .  S
C1106      H1118   1.082   1_655  S
C1107      C1108   1.373       .  A
C1107      H1119   1.082       .  S
C1108      H1120   1.082       .  S
C1109      C1922   1.475       .  S
C1110      C1246   1.526       .  S
C1111      C1179   1.508       .  S
C1112      C1145   1.526   1_655  S
N1123      C1128   1.349       .  A
N1123      C1127   1.351       .  A
N1123      H1155   1.043       .  S
N1124      C1131   1.348       .  A
N1124      C1132   1.346       .  A
N1125      C1130   1.348       .  A
N1125      C1129   1.349       .  A
N1125      H1156   1.046       .  S
N1126      C1133   1.347       .  A
N1126      C1134   1.350       .  A
C1127      C1135   1.389       .  A
C1127      C1143   1.421       .  A
C1128      C1144   1.414       .  A
C1128      C1136   1.387       .  A
C1129      C1137   1.388       .  A
C1129      C1146   1.416       .  A
C1130      C1145   1.413       .  A
C1130      C1138   1.387       .  A
C1131      C1143   1.414       .  A
C1131      C1139   1.387       .  A
C1132      C1146   1.410       .  A
C1132      C1140   1.386       .  A
C1133      C1141   1.387       .  A
C1133      C1144   1.410       .  A
C1134      C1142   1.387       .  A
C1134      C1145   1.418       .  A
C1135      C1136   1.387       .  A
C1135      H1147   1.082       .  S
C1136      H1148   1.082       .  S
C1137      C1138   1.395       .  A
C1137      H1149   1.082       .  S
C1138      H1150   1.082       .  S
C1139      C1140   1.379       .  A
C1139      H1151   1.081       .  S
C1140      H1152   1.082       .  S
C1141      C1142   1.376       .  A
C1141      H1153   1.080       .  S
C1142      H1154   1.081   1_455  S
C1143      C1383   1.515       .  S
C1144      C1933   1.478       .  S
C1146      C1213   1.522       .  S
N1157      C1162   1.351       .  A
N1157      C1161   1.346       .  A
N1157      H1189   1.044       .  S
N1158      C1165   1.347       .  A
N1158      C1166   1.345       .  A
N1159      C1164   1.349       .  A
N1159      C1163   1.352       .  A
N1159      H1190   1.043       .  S
N1160      C1167   1.340       .  A
N1160      C1168   1.346       .  A
C1161      C1169   1.382       .  A
C1161      C1177   1.400       .  A
C1162      C1178   1.417       .  A
C1162      C1170   1.391       .  A
C1163      C1171   1.389       .  A
C1163      C1180   1.419       .  A
C1164      C1179   1.419       .  A
C1164      C1172   1.387       .  A
C1165      C1177   1.403       .  A
C1165      C1173   1.385       .  A
C1166      C1180   1.412       .  A
C1166      C1174   1.388       .  A
C1167      C1175   1.379       .  A
C1167      C1178   1.398       .  A
C1168      C1176   1.394       .  A
C1168      C1179   1.419       .  A
C1169      C1170   1.377       .  A
C1169      H1181   1.083       .  S
C1170      H1182   1.080       .  S
C1171      C1172   1.387       .  A
C1171      H1183   1.082   1_655  S
C1172      H1184   1.082       .  S
C1173      C1174   1.378       .  A
C1173      H1185   1.082       .  S
C1174      H1186   1.082   1_655  S
C1175      C1176   1.377       .  A
C1175      H1187   1.082       .  S
C1176      H1188   1.075       .  S
C1177      C2005   1.463       .  S
C1178      C1313   1.493       .  S
C1180      C1214   1.503   1_655  S
N1191      C1196   1.346       .  A
N1191      C1195   1.359       .  A
N1191      H1223   1.043       .  S
N1192      C1199   1.349       .  A
N1192      C1200   1.345       .  A
N1193      C1198   1.357       .  A
N1193      C1197   1.356       .  A
N1193      H1224   1.043       .  S
N1194      C1201   1.358       .  A
N1194      C1202   1.354       .  A
C1195      C1203   1.387       .  A
C1195      C1211   1.417       .  A
C1196      C1212   1.414       .  A
C1196      C1204   1.384       .  A
C1197      C1205   1.378       .  A
C1197      C1214   1.412       .  A
C1198      C1213   1.423       .  A
C1198      C1206   1.388       .  A
C1199      C1211   1.411       .  A
C1199      C1207   1.387       .  A
C1200      C1214   1.411       .  A
C1200      C1208   1.387       .  A
C1201      C1209   1.383       .  A
C1201      C1212   1.418       .  A
C1202      C1210   1.389       .  A
C1202      C1213   1.430       .  A
C1203      C1204   1.378       .  A
C1203      H1215   1.080       .  S
C1204      H1216   1.081       .  S
C1205      C1206   1.367       .  A
C1205      H1217   1.081       .  S
C1206      H1218   1.067       .  S
C1207      C1208   1.378       .  A
C1207      H1219   1.080       .  S
C1208      H1220   1.082       .  S
C1209      C1210   1.377       .  A
C1209      H1221   1.080       .  S
C1210      H1222   1.082       .  S
C1211      C2014   1.494       .  S
C1212      C1450   1.523       .  S
N1225      C1230   1.358       .  A
N1225      C1229   1.358       .  A
N1225      H1257   1.040       .  S
N1226      C1233   1.341       .  A
N1226      C1234   1.351       .  A
N1227      C1232   1.350       .  A
N1227      C1231   1.351       .  A
N1227      H1258   1.045       .  S
N1228      C1235   1.350       .  A
N1228      C1236   1.351       .  A
C1229      C1237   1.386       .  A
C1229      C1245   1.421       .  A
C1230      C1246   1.424       .  A
C1230      C1238   1.387       .  A
C1231      C1239   1.388       .  A
C1231      C1248   1.405       .  A
C1232      C1247   1.389       .  A
C1232      C1240   1.382       .  A
C1233      C1245   1.415       .  A
C1233      C1241   1.392       .  A
C1234      C1248   1.414       .  A
C1234      C1242   1.383       .  A
C1235      C1243   1.389       .  A
C1235      C1246   1.419       .  A
C1236      C1244   1.383       .  A
C1236      C1247   1.417       .  A
C1237      C1238   1.376       .  A
C1237      H1249   1.082       .  S
C1238      H1250   1.082       .  S
C1239      C1240   1.365       .  A
C1239      H1251   1.083       .  S
C1240      H1252   1.083       .  S
C1241      C1242   1.381       .  A
C1241      H1253   1.081       .  S
C1242      H1254   1.082       .  S
C1243      C1244   1.373       .  A
C1243      H1255   1.078       .  S
C1244      H1256   1.081       .  S
C1245      C1875   1.477       .  S
C1247      C1316   1.510       .  S
C1248      C1282   1.515   1_565  S
N1259      C1264   1.345       .  A
N1259      C1263   1.346       .  A
N1259      H1291   1.041       .  S
N1260      C1267   1.350       .  A
N1260      C1268   1.349       .  A
N1261      C1266   1.359       .  A
N1261      C1265   1.353       .  A
N1261      H1292   1.043       .  S
N1262      C1269   1.348       .  A
N1262      C1270   1.343       .  A
C1263      C1271   1.388       .  A
C1263      C1279   1.408       .  A
C1264      C1280   1.412       .  A
C1264      C1272   1.388       .  A
C1265      C1273   1.384       .  A
C1265      C1282   1.423       .  A
C1266      C1281   1.434       .  A
C1266      C1274   1.393       .  A
C1267      C1279   1.410       .  A
C1267      C1275   1.385       .  A
C1268      C1282   1.417       .  A
C1268      C1276   1.388       .  A
C1269      C1277   1.387       .  A
C1269      C1280   1.409       .  A
C1270      C1278   1.385       .  A
C1270      C1281   1.404       .  A
C1271      C1272   1.385       .  A
C1271      H1283   1.082       .  S
C1272      H1284   1.082       .  S
C1273      C1274   1.384       .  A
C1273      H1285   1.082       .  S
C1274      H1286   1.077       .  S
C1275      C1276   1.376       .  A
C1275      H1287   1.082       .  S
C1276      H1288   1.082   1_545  S
C1277      C1278   1.376       .  A
C1277      H1289   1.081       .  S
C1278      H1290   1.082       .  S
C1279      C1884   1.469       .  S
C1280      C1519   1.496       .  S
C1281      C1350   1.513       .  S
N1293      C1298   1.343       .  A
N1293      C1297   1.345       .  A
N1293      H1325   1.042       .  S
N1294      C1301   1.346       .  A
N1294      C1302   1.341       .  A
N1295      C1300   1.348       .  A
N1295      C1299   1.356       .  A
N1295      H1326   1.044       .  S
N1296      C1303   1.354       .  A
N1296      C1304   1.352       .  A
C1297      C1305   1.385       .  A
C1297      C1313   1.406       .  A
C1298      C1314   1.406       .  A
C1298      C1306   1.390       .  A
C1299      C1307   1.392       .  A
C1299      C1316   1.427       .  A
C1300      C1315   1.418       .  A
C1300      C1308   1.385       .  A
C1301      C1313   1.413       .  A
C1301      C1309   1.390       .  A
C1302      C1316   1.399       .  A
C1302      C1310   1.384       .  A
C1303      C1311   1.384       .  A
C1303      C1314   1.418       .  A
C1304      C1312   1.388       .  A
C1304      C1315   1.424       .  A
C1305      C1306   1.384       .  A
C1305      H1317   1.082       .  S
C1306      H1318   1.081       .  S
C1307      C1308   1.384       .  A
C1307      H1319   1.077       .  S
C1308      H1320   1.082       .  S
C1309      C1310   1.380       .  A
C1309      H1321   1.081       .  S
C1310      H1322   1.082       .  S
C1311      C1312   1.378       .  A
C1311      H1323   1.081       .  S
C1312      H1324   1.080   1_565  S
C1314      C1946   1.476       .  S
C1315      C1347   1.514   1_565  S
N1327      C1332   1.346       .  A
N1327      C1331   1.348       .  A
N1327      H1359   1.039       .  S
N1328      C1335   1.355       .  A
N1328      C1336   1.354       .  A
N1329      C1334   1.357       .  A
N1329      C1333   1.349       .  A
N1329      H1360   1.042       .  S
N1330      C1337   1.358       .  A
N1330      C1338   1.358       .  A
C1331      C1339   1.381       .  A
C1331      C1347   1.408       .  A
C1332      C1348   1.420       .  A
C1332      C1340   1.397       .  A
C1333      C1341   1.384       .  A
C1333      C1350   1.421       .  A
C1334      C1349   1.430       .  A
C1334      C1342   1.393       .  A
C1335      C1347   1.407       .  A
C1335      C1343   1.387       .  A
C1336      C1350   1.394       .  A
C1336      C1344   1.381       .  A
C1337      C1345   1.387       .  A
C1337      C1348   1.425       .  A
C1338      C1346   1.386       .  A
C1338      C1349   1.430       .  A
C1339      C1340   1.385       .  A
C1339      H1351   1.082       .  S
C1340      H1352   1.082       .  S
C1341      C1342   1.385       .  A
C1341      H1353   1.082       .  S
C1342      H1354   1.078       .  S
C1343      C1344   1.361       .  A
C1343      H1355   1.083       .  S
C1344      H1356   1.083       .  S
C1345      C1346   1.373       .  A
C1345      H1357   1.080       .  S
C1346      H1358   1.082       .  S
C1348      C1966   1.484       .  S
C1349      C1585   1.533       .  S
N1361      C1366   1.358       .  A
N1361      C1365   1.349       .  A
N1361      H1393   1.043       .  S
N1362      C1369   1.360       .  A
N1362      C1370   1.366       .  A
N1363      C1368   1.352       .  A
N1363      C1367   1.357       .  A
N1363      H1394   1.038       .  S
N1364      C1371   1.345       .  A
N1364      C1372   1.339       .  A
C1365      C1373   1.389       .  A
C1365      C1381   1.414       .  A
C1366      C1382   1.415       .  A
C1366      C1374   1.385       .  A
C1367      C1375   1.400       .  A
C1367      C1384   1.447       .  A
C1368      C1383   1.410       .  A
C1368      C1376   1.373       .  A
C1369      C1381   1.426       .  A
C1369      C1377   1.379       .  A
C1370      C1384   1.447       .  A
C1370      C1378   1.389       .  A
C1371      C1379   1.384       .  A
C1371      C1382   1.386       .  A
C1372      C1380   1.385       .  A
C1372      C1383   1.397       .  A
C1373      C1374   1.378       .  A
C1373      H1385   1.082       .  S
C1374      H1386   1.080       .  S
C1375      C1376   1.376       .  A
C1375      H1387   1.065       .  S
C1376      H1388   1.082       .  S
C1377      C1378   1.374       .  A
C1377      H1389   1.082       .  S
C1378      H1390   1.071       .  S
C1379      C1380   1.378       .  A
C1379      H1391   1.082       .  S
C1380      H1392   1.082       .  S
C1381      C1417   1.513   1_565  S
C1382      C2135   1.482       .  S
C1384      C1451   1.548       .  S
N1395      C1400   1.348       .  A
N1395      C1399   1.344       .  A
N1395      H1427   1.039       .  S
N1396      C1403   1.344       .  A
N1396      C1404   1.348       .  A
N1397      C1402   1.353       .  A
N1397      C1401   1.353       .  A
N1397      H1428   1.044       .  S
N1398      C1405   1.351       .  A
N1398      C1406   1.350       .  A
C1399      C1407   1.382       .  A
C1399      C1415   1.398       .  A
C1400      C1416   1.413       .  A
C1400      C1408   1.393       .  A
C1401      C1409   1.387       .  A
C1401      C1418   1.419       .  A
C1402      C1417   1.418       .  A
C1402      C1410   1.388       .  A
C1403      C1415   1.406       .  A
C1403      C1411   1.379       .  A
C1404      C1418   1.428       .  A
C1404      C1412   1.398       .  A
C1405      C1413   1.385       .  A
C1405      C1416   1.421       .  A
C1406      C1414   1.390       .  A
C1406      C1417   1.427       .  A
C1407      C1408   1.381       .  A
C1407      H1419   1.082       .  S
C1408      H1420   1.080       .  S
C1409      C1410   1.380       .  A
C1409      H1421   1.082       .  S
C1410      H1422   1.082   1_545  S
C1411      C1412   1.379       .  A
C1411      H1423   1.082       .  S
C1412      H1424   1.074       .  S
C1413      C1414   1.381       .  A
C1413      H1425   1.082       .  S
C1414      H1426   1.081   1_545  S
C1415      C1553   1.530       .  S
C1416      C2148   1.482       .  S
C1418      C1486   1.517       .  S
N1429      C1434   1.342       .  A
N1429      C1433   1.350       .  A
N1429      H1461   1.045       .  S
N1430      C1437   1.349       .  A
N1430      C1438   1.348       .  A
N1431      C1436   1.349       .  A
N1431      C1435   1.353       .  A
N1431      H1462   1.045       .  S
N1432      C1439   1.359       .  A
N1432      C1440   1.362       .  A
C1433      C1441   1.390       .  A
C1433      C1449   1.412       .  A
C1434      C1450   1.403       .  A
C1434      C1442   1.382       .  A
C1435      C1443   1.385       .  A
C1435      C1452   1.410       .  A
C1436      C1451   1.410       .  A
C1436      C1444   1.390       .  A
C1437      C1449   1.412       .  A
C1437      C1445   1.387       .  A
C1438      C1452   1.416       .  A
C1438      C1446   1.388       .  A
C1439      C1447   1.386       .  A
C1439      C1450   1.413       .  A
C1440      C1448   1.381       .  A
C1440      C1451   1.406       .  A
C1441      C1442   1.386       .  A
C1441      H1453   1.081       .  S
C1442      H1454   1.082       .  S
C1443      C1444   1.387       .  A
C1443      H1455   1.082       .  S
C1444      H1456   1.082       .  S
C1445      C1446   1.379       .  A
C1445      H1457   1.080       .  S
C1446      H1458   1.082       .  S
C1447      C1448   1.371       .  A
C1447      H1459   1.083       .  S
C1448      H1460   1.082       .  S
C1449      C1771   1.484       .  S
C1452      C1485   1.525   1_565  S
N1463      C1468   1.342       .  A
N1463      C1467   1.351       .  A
N1463      H1495   1.034       .  S
N1464      C1471   1.353       .  A
N1464      C1472   1.355       .  A
N1465      C1470   1.355       .  A
N1465      C1469   1.355       .  A
N1465      H1496   1.036       .  S
N1466      C1473   1.357       .  A
N1466      C1474   1.357       .  A
C1467      C1475   1.380       .  A
C1467      C1483   1.411       .  A
C1468      C1484   1.419       .  A
C1468      C1476   1.396       .  A
C1469      C1477   1.379       .  A
C1469      C1486   1.424       .  A
C1470      C1485   1.434       .  A
C1470      C1478   1.393       .  A
C1471      C1483   1.408       .  A
C1471      C1479   1.391       .  A
C1472      C1486   1.391       .  A
C1472      C1480   1.380       .  A
C1473      C1481   1.386       .  A
C1473      C1484   1.429       .  A
C1474      C1482   1.389       .  A
C1474      C1485   1.435       .  A
C1475      C1476   1.381       .  A
C1475      H1487   1.082       .  S
C1476      H1488   1.081       .  S
C1477      C1478   1.371       .  A
C1477      H1489   1.079       .  S
C1478      H1490   1.069   1_545  S
C1479      C1480   1.362       .  A
C1479      H1491   1.083       .  S
C1480      H1492   1.083       .  S
C1481      C1482   1.376       .  A
C1481      H1493   1.082       .  S
C1482      H1494   1.082   1_545  S
C1483      C1619   1.519       .  S
C1484      C1784   1.476       .  S
N1497      C1502   1.354       .  A
N1497      C1501   1.351       .  A
N1497      H1529   1.042       .  S
N1498      C1505   1.358       .  A
N1498      C1506   1.364       .  A
N1499      C1504   1.355       .  A
N1499      C1503   1.357       .  A
N1499      H1530   1.044       .  S
N1500      C1507   1.346       .  A
N1500      C1508   1.345       .  A
C1501      C1509   1.393       .  A
C1501      C1517   1.418       .  A
C1502      C1518   1.396       .  A
C1502      C1510   1.378       .  A
C1503      C1511   1.392       .  A
C1503      C1520   1.429       .  A
C1504      C1519   1.410       .  A
C1504      C1512   1.379       .  A
C1505      C1517   1.430       .  A
C1505      C1513   1.383       .  A
C1506      C1520   1.443       .  A
C1506      C1514   1.392       .  A
C1507      C1515   1.382       .  A
C1507      C1518   1.395       .  A
C1508      C1516   1.390       .  A
C1508      C1519   1.408       .  A
C1509      C1510   1.363       .  A
C1509      H1521   1.078   1_655  S
C1510      H1522   1.083       .  S
C1511      C1512   1.372       .  A
C1511      H1523   1.077       .  S
C1512      H1524   1.083       .  S
C1513      C1514   1.373       .  A
C1513      H1525   1.083   1_655  S
C1514      H1526   1.073       .  S
C1515      C1516   1.371       .  A
C1515      H1527   1.082       .  S
C1516      H1528   1.081       .  S
C1517      C1551   1.510   1_655  S
C1518      C2235   1.469       .  S
C1520      C1588   1.544       .  S
N1531      C1536   1.349       .  A
N1531      C1535   1.355       .  A
N1531      H1563   1.041       .  S
N1532      C1539   1.347       .  A
N1532      C1540   1.341       .  A
N1533      C1538   1.351       .  A
N1533      C1537   1.355       .  A
N1533      H1564   1.044       .  S
N1534      C1541   1.358       .  A
N1534      C1542   1.359       .  A
C1535      C1543   1.388       .  A
C1535      C1551   1.421       .  A
C1536      C1552   1.418       .  A
C1536      C1544   1.390       .  A
C1537      C1545   1.380       .  A
C1537      C1554   1.398       .  A
C1538      C1553   1.418       .  A
C1538      C1546   1.391       .  A
C1539      C1551   1.403       .  A
C1539      C1547   1.388       .  A
C1540      C1554   1.392       .  A
C1540      C1548   1.384       .  A
C1541      C1549   1.383       .  A
C1541      C1552   1.418       .  A
C1542      C1550   1.387       .  A
C1542      C1553   1.423       .  A
C1543      C1544   1.387       .  A
C1543      H1555   1.082       .  S
C1544      H1556   1.082       .  S
C1545      C1546   1.365       .  A
C1545      H1557   1.083       .  S
C1546      H1558   1.080       .  S
C1547      C1548   1.367       .  A
C1547      H1559   1.082       .  S
C1548      H1560   1.082       .  S
C1549      C1550   1.361       .  A
C1549      H1561   1.082       .  S
C1550      H1562   1.078       .  S
C1552      C2252   1.487       .  S
C1554      C1622   1.521       .  S
N1565      C1570   1.354       .  A
N1565      C1569   1.347       .  A
N1565      H1597   1.042       .  S
N1566      C1573   1.361       .  A
N1566      C1574   1.363       .  A
N1567      C1572   1.356       .  A
N1567      C1571   1.352       .  A
N1567      H1598   1.045       .  S
N1568      C1575   1.349       .  A
N1568      C1576   1.348       .  A
C1569      C1577   1.386       .  A
C1569      C1585   1.414       .  A
C1570      C1586   1.415       .  A
C1570      C1578   1.389       .  A
C1571      C1579   1.388       .  A
C1571      C1588   1.409       .  A
C1572      C1587   1.404       .  A
C1572      C1580   1.382       .  A
C1573      C1585   1.413       .  A
C1573      C1581   1.386       .  A
C1574      C1588   1.414       .  A
C1574      C1582   1.382       .  A
C1575      C1583   1.385       .  A
C1575      C1586   1.407       .  A
C1576      C1584   1.388       .  A
C1576      C1587   1.412       .  A
C1577      C1578   1.383       .  A
C1577      H1589   1.082       .  S
C1578      H1590   1.082       .  S
C1579      C1580   1.380       .  A
C1579      H1591   1.081       .  S
C1580      H1592   1.082       .  S
C1581      C1582   1.369       .  A
C1581      H1593   1.083       .  S
C1582      H1594   1.082       .  S
C1583      C1584   1.373       .  A
C1583      H1595   1.082       .  S
C1584      H1596   1.081   1_655  S
C1586      C1732   1.480       .  S
C1587      C1621   1.513   1_655  S
N1599      C1604   1.350       .  A
N1599      C1603   1.353       .  A
N1599      H1631   1.045       .  S
N1600      C1607   1.355       .  A
N1600      C1608   1.348       .  A
N1601      C1606   1.356       .  A
N1601      C1605   1.352       .  A
N1601      H1632   1.041       .  S
N1602      C1609   1.348       .  A
N1602      C1610   1.346       .  A
C1603      C1611   1.388       .  A
C1603      C1619   1.420       .  A
C1604      C1620   1.410       .  A
C1604      C1612   1.386       .  A
C1605      C1613   1.391       .  A
C1605      C1622   1.427       .  A
C1606      C1621   1.409       .  A
C1606      C1614   1.381       .  A
C1607      C1619   1.416       .  A
C1607      C1615   1.384       .  A
C1608      C1622   1.421       .  A
C1608      C1616   1.388       .  A
C1609      C1617   1.387       .  A
C1609      C1620   1.408       .  A
C1610      C1618   1.387       .  A
C1610      C1621   1.414       .  A
C1611      C1612   1.379       .  A
C1611      H1623   1.082       .  S
C1612      H1624   1.082       .  S
C1613      C1614   1.369       .  A
C1613      H1625   1.081       .  S
C1614      H1626   1.080       .  S
C1615      C1616   1.375       .  A
C1615      H1627   1.081       .  S
C1616      H1628   1.082       .  S
C1617      C1618   1.377       .  A
C1617      H1629   1.082       .  S
C1618      H1630   1.082       .  S
C1620      C1712   1.474       .  S
O1633      C1636   1.269       .  A
O1633     Cd1638   2.494       .  S
C1634      C1650   1.468   1_554  S
C1634      O1643   1.261       .  A
C1634      O1639   1.271       .  A
O1635      C1641   1.267       .  A
O1635     Cd1638   2.468       .  S
C1636      C1686   1.472       .  S
C1636      O1644   1.266       .  A
C1637      C1660   1.464       .  S
C1637      O1642   1.266       .  A
C1637      O1640   1.267       .  A
Cd1638     O1645   2.418       .  S
Cd1638     O1644   2.457       .  S
Cd1638     O1643   2.412       .  S
Cd1638     O1639   2.520       .  S
Cd1638     O1642   2.462       .  S
Cd1638     O1640   2.447       .  S
C1641      O1645   1.264       .  A
O1646      C1649   1.262       .  A
O1646     Cd1651   2.458       .  S
C1647      O1656   1.265       .  A
C1647      O1652   1.264       .  A
O1648      C1654   1.265       .  A
O1648     Cd1651   2.504       .  S
C1649      C1676   1.461       .  S
C1649      O1657   1.263       .  A
C1650      O1655   1.266       .  A
C1650      O1653   1.264       .  A
Cd1651     O1658   2.422       .  S
Cd1651     O1657   2.471       .  S
Cd1651     O1656   2.457       .  S
Cd1651     O1652   2.513       .  S
Cd1651     O1655   2.513       .  S
Cd1651     O1653   2.437       .  S
C1654      C2209   1.464       .  S
C1654      O1658   1.263       .  A
O1659      C1662   1.268       .  A
O1659     Cd1664   2.411       .  S
C1660      O1669   1.263       .  A
C1660      O1665   1.267       .  A
O1661      C1667   1.264       .  A
O1661     Cd1664   2.461       .  S
C1662      O1670   1.263       .  A
C1663      C1753   1.470       .  S
C1663      O1668   1.267       .  A
C1663      O1666   1.264       .  A
Cd1664     O1671   2.440       .  S
Cd1664     O1670   2.508       .  S
Cd1664     O1669   2.448       .  S
Cd1664     O1665   2.481       .  S
Cd1664     O1668   2.490       .  S
Cd1664     O1666   2.460       .  S
C1667      C1673   1.460   1_554  S
C1667      O1671   1.266       .  A
O1672      C1675   1.266       .  A
O1672     Cd1677   2.487       .  S
C1673      O1682   1.261       .  A
C1673      O1678   1.266       .  A
O1674      C1680   1.263       .  A
O1674     Cd1677   2.529       .  S
C1675      C2115   1.470       .  S
C1675      O1683   1.265       .  A
C1676      O1681   1.264       .  A
C1676      O1679   1.265       .  A
Cd1677     O1684   2.448       .  S
Cd1677     O1683   2.466       .  S
Cd1677     O1682   2.437       .  S
Cd1677     O1678   2.483       .  S
Cd1677     O1681   2.448       .  S
Cd1677     O1679   2.462       .  S
C1680      O1684   1.265       .  A
O1685      C1688   1.268       .  A
O1685     Cd1690   2.521       .  S
C1686      O1695   1.265       .  A
C1686      O1691   1.267       .  A
O1687      C1693   1.267       .  A
O1687     Cd1690   2.503       .  S
C1688      C1701   1.470   1_455  S
C1688      O1696   1.264       .  A
C1689      C1714   1.473       .  S
C1689      O1694   1.267       .  A
C1689      O1692   1.265       .  A
Cd1690     O1697   2.446       .  S
Cd1690     O1696   2.424       .  S
Cd1690     O1695   2.467       .  S
Cd1690     O1691   2.497       .  S
Cd1690     O1694   2.496       .  S
Cd1690     O1692   2.463       .  S
C1693      O1697   1.264       .  A
O1698      C1701   1.269       .  A
O1698     Cd1703   2.528       .  S
C1699      C2169   1.468       .  S
C1699      O1708   1.264       .  A
C1699      O1704   1.267       .  A
O1700      C1706   1.266       .  A
O1700     Cd1703   2.466       .  S
C1701      O1709   1.262       .  A
C1702      O1707   1.267       .  A
C1702      O1705   1.264       .  A
Cd1703     O1710   2.459       .  S
Cd1703     O1709   2.420       .  S
Cd1703     O1708   2.447       .  S
Cd1703     O1704   2.491       .  S
Cd1703     O1707   2.491       .  S
Cd1703     O1705   2.435       .  S
C1706      C1728   1.466       .  S
C1706      O1710   1.266       .  A
O1711      C1714   1.266       .  A
O1711     Cd1716   2.491       .  S
C1712      O1721   1.265       .  A
C1712      O1717   1.268       .  A
O1713      C1719   1.271       .  A
O1713     Cd1716   2.528       .  S
C1714      O1722   1.266       .  A
C1715      C1777   1.479       .  S
C1715      O1720   1.270       .  A
C1715      O1718   1.263       .  A
Cd1716     O1723   2.425       .  S
Cd1716     O1722   2.469       .  S
Cd1716     O1721   2.443       .  S
Cd1716     O1717   2.464       .  S
Cd1716     O1720   2.536       .  S
Cd1716     O1718   2.457       .  S
C1719      C1727   1.473   1_455  S
C1719      O1723   1.263       .  A
O1724      C1727   1.269       .  A
O1724     Cd1729   2.526       .  S
C1725      C1961   1.466       .  S
C1725      O1734   1.265       .  A
C1725      O1730   1.268       .  A
O1726      C1732   1.268       .  A
O1726     Cd1729   2.495       .  S
C1727      O1735   1.264       .  A
C1728      O1733   1.267       .  A
C1728      O1731   1.265       .  A
Cd1729     O1736   2.455       .  S
Cd1729     O1735   2.437       .  S
Cd1729     O1734   2.450       .  S
Cd1729     O1730   2.473       .  S
Cd1729     O1733   2.475       .  S
Cd1729     O1731   2.457       .  S
C1732      O1736   1.264       .  A
O1737      C1740   1.272       .  A
O1737     Cd1742   2.490       .  S
C1738      C2063   1.460       .  S
C1738      O1747   1.263       .  A
C1738      O1743   1.270       .  A
O1739      C1745   1.270       .  A
O1739     Cd1742   2.460       .  S
C1740      C1751   1.462   1_565  S
C1740      O1748   1.266       .  A
C1741      C1767   1.468       .  S
C1741      O1746   1.270       .  A
C1741      O1744   1.266       .  A
Cd1742     O1749   2.468       .  S
Cd1742     O1748   2.388       .  S
Cd1742     O1747   2.409       .  S
Cd1742     O1743   2.479       .  S
Cd1742     O1746   2.490       .  S
Cd1742     O1744   2.430       .  S
C1745      O1749   1.264       .  A
O1750      C1753   1.268       .  A
O1750     Cd1755   2.484       .  S
C1751      O1760   1.261       .  A
C1751      O1756   1.269       .  A
O1752      C1758   1.266       .  A
O1752     Cd1755   2.481       .  S
C1753      O1761   1.266       .  A
C1754      C1780   1.458       .  S
C1754      O1759   1.266       .  A
C1754      O1757   1.265       .  A
Cd1755     O1762   2.403       .  S
Cd1755     O1761   2.456       .  S
Cd1755     O1760   2.399       .  S
Cd1755     O1756   2.510       .  S
Cd1755     O1759   2.449       .  S
Cd1755     O1757   2.436       .  S
C1758      O1762   1.265       .  A
O1763      C1766   1.267       .  A
O1763     Cd1768   2.463       .  S
C1764      C1779   1.462   1_565  S
C1764      O1773   1.265       .  A
C1764      O1769   1.268       .  A
O1765      C1771   1.269       .  A
O1765     Cd1768   2.494       .  S
C1766      C2013   1.457       .  S
C1766      O1774   1.264       .  A
C1767      O1772   1.269       .  A
C1767      O1770   1.265       .  A
Cd1768     O1775   2.443       .  S
Cd1768     O1774   2.419       .  S
Cd1768     O1773   2.425       .  S
Cd1768     O1769   2.478       .  S
Cd1768     O1772   2.494       .  S
Cd1768     O1770   2.433       .  S
C1771      O1775   1.263       .  A
O1776      C1779   1.269       .  A
O1776     Cd1781   2.485       .  S
C1777      O1786   1.265       .  A
C1777      O1782   1.267       .  A
O1778      C1784   1.267       .  A
O1778     Cd1781   2.475       .  S
C1779      O1787   1.263       .  A
C1780      O1785   1.265       .  A
C1780      O1783   1.264       .  A
Cd1781     O1788   2.437       .  S
Cd1781     O1787   2.421       .  S
Cd1781     O1786   2.468       .  S
Cd1781     O1782   2.526       .  S
Cd1781     O1785   2.460       .  S
Cd1781     O1783   2.444       .  S
C1784      O1788   1.264       .  A
O1789      C1792   1.267       .  A
O1789     Cd1794   2.480       .  S
C1790      C1803   1.454   1_556  S
C1790      O1799   1.263       .  A
C1790      O1795   1.271       .  A
O1791      C1797   1.269       .  A
O1791     Cd1794   2.491       .  S
C1792      C1845   1.463       .  S
C1792      O1800   1.264       .  A
C1793      C1819   1.470       .  S
C1793      O1798   1.268       .  A
C1793      O1796   1.265       .  A
Cd1794     O1801   2.448       .  S
Cd1794     O1800   2.427       .  S
Cd1794     O1799   2.354       .  S
Cd1794     O1795   2.490       .  S
Cd1794     O1798   2.482       .  S
Cd1794     O1796   2.462       .  S
C1797      O1801   1.262       .  A
O1802      C1805   1.267       .  A
O1802     Cd1807   2.445       .  S
C1803      O1812   1.265       .  A
C1803      O1808   1.270       .  A
O1804      C1810   1.269       .  A
O1804     Cd1807   2.481       .  S
C1805      C1974   1.450       .  S
C1805      O1813   1.264       .  A
C1806      O1811   1.271       .  A
C1806      O1809   1.261       .  A
Cd1807     O1814   2.454       .  S
Cd1807     O1813   2.395       .  S
Cd1807     O1812   2.363       .  S
Cd1807     O1808   2.487       .  S
Cd1807     O1811   2.515       .  S
Cd1807     O1809   2.449       .  S
C1810      C1832   1.469       .  S
C1810      O1814   1.265       .  A
O1815      C1818   1.271       .  A
O1815     Cd1820   2.543       .  S
C1816      C1896   1.478       .  S
C1816      O1825   1.263       .  A
C1816      O1821   1.269       .  A
O1817      C1823   1.266       .  A
O1817     Cd1820   2.474       .  S
C1818      C1829   1.472   1_556  S
C1818      O1826   1.262       .  A
C1819      O1824   1.264       .  A
C1819      O1822   1.267       .  A
Cd1820     O1827   2.433       .  S
Cd1820     O1826   2.415       .  S
Cd1820     O1825   2.476       .  S
Cd1820     O1821   2.525       .  S
Cd1820     O1824   2.471       .  S
Cd1820     O1822   2.478       .  S
C1823      O1827   1.265       .  A
O1828      C1831   1.267       .  A
O1828     Cd1833   2.484       .  S
C1829      O1838   1.263       .  A
C1829      O1834   1.269       .  A
O1830      C1836   1.267       .  A
O1830     Cd1833   2.501       .  S
C1831      C2026   1.466       .  S
C1831      O1839   1.264       .  A
C1832      O1837   1.265       .  A
C1832      O1835   1.266       .  A
Cd1833     O1840   2.431       .  S
Cd1833     O1839   2.447       .  S
Cd1833     O1838   2.420       .  S
Cd1833     O1834   2.533       .  S
Cd1833     O1837   2.479       .  S
Cd1833     O1835   2.469       .  S
C1836      O1840   1.265       .  A
O1841      C1844   1.268       .  A
O1841     Cd1846   2.478       .  S
C1842      C1871   1.464       .  S
C1842      O1851   1.266       .  A
C1842      O1847   1.268       .  A
O1843      C1849   1.270       .  A
O1843     Cd1846   2.508       .  S
C1844      O1852   1.263       .  A
C1845      O1850   1.268       .  A
C1845      O1848   1.263       .  A
Cd1846     O1853   2.429       .  S
Cd1846     O1852   2.425       .  S
Cd1846     O1851   2.439       .  S
Cd1846     O1847   2.473       .  S
Cd1846     O1850   2.486       .  S
Cd1846     O1848   2.423       .  S
C1849      C1855   1.468   1_565  S
C1849      O1853   1.263       .  A
O1854      C1857   1.265       .  A
O1854     Cd1859   2.483       .  S
C1855      O1864   1.265       .  A
C1855      O1860   1.267       .  A
O1856      C1862   1.268       .  A
O1856     Cd1859   2.541       .  S
C1857      C2182   1.460       .  S
C1857      O1865   1.264       .  A
C1858      C1888   1.466       .  S
C1858      O1863   1.267       .  A
C1858      O1861   1.263       .  A
Cd1859     O1866   2.438       .  S
Cd1859     O1865   2.423       .  S
Cd1859     O1864   2.439       .  S
Cd1859     O1860   2.499       .  S
Cd1859     O1863   2.485       .  S
Cd1859     O1861   2.459       .  S
C1862      O1866   1.264       .  A
O1867      C1870   1.265       .  A
O1867     Cd1872   2.479       .  S
C1868      C1881   1.469   1_565  S
C1868      O1877   1.262       .  A
C1868      O1873   1.265       .  A
O1869      C1875   1.265       .  A
O1869     Cd1872   2.483       .  S
C1870      C1923   1.472       .  S
C1870      O1878   1.266       .  A
C1871      O1876   1.265       .  A
C1871      O1874   1.263       .  A
Cd1872     O1879   2.444       .  S
Cd1872     O1878   2.478       .  S
Cd1872     O1877   2.460       .  S
Cd1872     O1873   2.508       .  S
Cd1872     O1876   2.488       .  S
Cd1872     O1874   2.445       .  S
C1875      O1879   1.265       .  A
O1880      C1883   1.268       .  A
O1880     Cd1885   2.521       .  S
C1881      O1890   1.262       .  A
C1881      O1886   1.269       .  A
O1882      C1888   1.265       .  A
O1882     Cd1885   2.468       .  S
C1883      C2232   1.471       .  S
C1883      O1891   1.264       .  A
C1884      O1889   1.267       .  A
C1884      O1887   1.265       .  A
Cd1885     O1892   2.460       .  S
Cd1885     O1891   2.434       .  S
Cd1885     O1890   2.435       .  S
Cd1885     O1886   2.505       .  S
Cd1885     O1889   2.465       .  S
Cd1885     O1887   2.424       .  S
C1888      O1892   1.266       .  A
O1893      C1896   1.264       .  A
O1893     Cd1898   2.506       .  S
C1894      C1907   1.470   1_655  S
C1894      O1903   1.263       .  A
C1894      O1899   1.267       .  A
O1895      C1901   1.266       .  A
O1895     Cd1898   2.532       .  S
C1896      O1904   1.266       .  A
C1897      C1920   1.468       .  S
C1897      O1902   1.264       .  A
C1897      O1900   1.264       .  A
Cd1898     O1905   2.454       .  S
Cd1898     O1904   2.493       .  S
Cd1898     O1903   2.426       .  S
Cd1898     O1899   2.531       .  S
Cd1898     O1902   2.488       .  S
Cd1898     O1900   2.466       .  S
C1901      O1905   1.264       .  A
O1906      C1909   1.267       .  A
O1906     Cd1911   2.492       .  S
C1907      O1916   1.261       .  A
C1907      O1912   1.269       .  A
O1908      C1914   1.266       .  A
O1908     Cd1911   2.466       .  S
C1909      C2078   1.466       .  S
C1909      O1917   1.265       .  A
C1910      O1915   1.265       .  A
C1910      O1913   1.264       .  A
Cd1911     O1918   2.469       .  S
Cd1911     O1917   2.440       .  S
Cd1911     O1916   2.413       .  S
Cd1911     O1912   2.539       .  S
Cd1911     O1915   2.500       .  S
Cd1911     O1913   2.461       .  S
C1914      C1935   1.468       .  S
C1914      O1918   1.267       .  A
O1919      C1922   1.268       .  A
O1919     Cd1924   2.484       .  S
C1920      O1929   1.267       .  A
C1920      O1925   1.268       .  A
O1921      C1927   1.270       .  A
O1921     Cd1924   2.505       .  S
C1922      O1930   1.262       .  A
C1923      O1928   1.268       .  A
C1923      O1926   1.265       .  A
Cd1924     O1931   2.398       .  S
Cd1924     O1930   2.424       .  S
Cd1924     O1929   2.446       .  S
Cd1924     O1925   2.476       .  S
Cd1924     O1928   2.486       .  S
Cd1924     O1926   2.470       .  S
C1927      C1940   1.464   1_655  S
C1927      O1931   1.263       .  A
O1932      C1935   1.268       .  A
O1932     Cd1937   2.471       .  S
C1933      O1942   1.263       .  A
C1933      O1938   1.269       .  A
O1934      C1940   1.269       .  A
O1934     Cd1937   2.501       .  S
C1935      O1943   1.266       .  A
C1936      C2128   1.461       .  S
C1936      O1941   1.268       .  A
C1936      O1939   1.264       .  A
Cd1937     O1944   2.405       .  S
Cd1937     O1943   2.460       .  S
Cd1937     O1942   2.424       .  S
Cd1937     O1938   2.496       .  S
Cd1937     O1941   2.481       .  S
Cd1937     O1939   2.409       .  S
C1940      O1944   1.264       .  A
O1945      C1948   1.265       .  A
O1945     Cd1950   2.467       .  S
C1946      O1955   1.264       .  A
C1946      O1951   1.267       .  A
O1947      C1953   1.267       .  A
O1947     Cd1950   2.525       .  S
C1948      C1975   1.466       .  S
C1948      O1956   1.266       .  A
C1949      C1959   1.459   1_565  S
C1949      O1954   1.269       .  A
C1949      O1952   1.262       .  A
Cd1950     O1957   2.456       .  S
Cd1950     O1956   2.464       .  S
Cd1950     O1955   2.443       .  S
Cd1950     O1951   2.474       .  S
Cd1950     O1954   2.492       .  S
Cd1950     O1952   2.403       .  S
C1953      C2000   1.475       .  S
C1953      O1957   1.265       .  A
O1958      C1961   1.265       .  A
O1958     Cd1963   2.469       .  S
C1959      O1968   1.263       .  A
C1959      O1964   1.266       .  A
O1960      C1966   1.268       .  A
O1960     Cd1963   2.486       .  S
C1961      O1969   1.266       .  A
C1962      C1988   1.467       .  S
C1962      O1967   1.266       .  A
C1962      O1965   1.264       .  A
Cd1963     O1970   2.449       .  S
Cd1963     O1969   2.464       .  S
Cd1963     O1968   2.413       .  S
Cd1963     O1964   2.486       .  S
Cd1963     O1967   2.481       .  S
Cd1963     O1965   2.451       .  S
C1966      O1970   1.264       .  A
O1971      C1974   1.266       .  A
O1971     Cd1976   2.440       .  S
C1972      C1987   1.459   1_565  S
C1972      O1981   1.264       .  A
C1972      O1977   1.268       .  A
O1973      C1979   1.269       .  A
O1973     Cd1976   2.520       .  S
C1974      O1982   1.265       .  A
C1975      O1980   1.268       .  A
C1975      O1978   1.265       .  A
Cd1976     O1983   2.428       .  S
Cd1976     O1982   2.397       .  S
Cd1976     O1981   2.399       .  S
Cd1976     O1977   2.491       .  S
Cd1976     O1980   2.465       .  S
Cd1976     O1978   2.453       .  S
C1979      O1983   1.263       .  A
O1984      C1987   1.270       .  A
O1984     Cd1989   2.495       .  S
C1985      C2196   1.463       .  S
C1985      O1994   1.264       .  A
C1985      O1990   1.268       .  A
O1986      C1992   1.269       .  A
O1986     Cd1989   2.471       .  S
C1987      O1995   1.262       .  A
C1988      O1993   1.268       .  A
C1988      O1991   1.266       .  A
Cd1989     O1996   2.432       .  S
Cd1989     O1995   2.393       .  S
Cd1989     O1994   2.431       .  S
Cd1989     O1990   2.472       .  S
Cd1989     O1993   2.478       .  S
Cd1989     O1991   2.450       .  S
C1992      O1996   1.263       .  A
O1997      C2000   1.271       .  A
O1997     Cd2002   2.528       .  S
C1998      C2011   1.465   1_655  S
C1998      O2007   1.263       .  A
C1998      O2003   1.272       .  A
O1999      C2005   1.268       .  A
O1999     Cd2002   2.450       .  S
C2000      O2008   1.263       .  A
C2001      C2031   1.469       .  S
C2001      O2006   1.266       .  A
C2001      O2004   1.267       .  A
Cd2002     O2009   2.425       .  S
Cd2002     O2008   2.435       .  S
Cd2002     O2007   2.399       .  S
Cd2002     O2003   2.509       .  S
Cd2002     O2006   2.487       .  S
Cd2002     O2004   2.457       .  S
C2005      O2009   1.263       .  A
O2010      C2013   1.269       .  A
O2010     Cd2015   2.454       .  S
C2011      O2020   1.265       .  A
C2011      O2016   1.269       .  A
O2012      C2018   1.270       .  A
O2012     Cd2015   2.491       .  S
C2013      O2021   1.266       .  A
C2014      O2019   1.272       .  A
C2014      O2017   1.264       .  A
Cd2015     O2022   2.440       .  S
Cd2015     O2021   2.412       .  S
Cd2015     O2020   2.406       .  S
Cd2015     O2016   2.496       .  S
Cd2015     O2019   2.509       .  S
Cd2015     O2017   2.454       .  S
C2018      C2040   1.467       .  S
C2018      O2022   1.265       .  A
O2023      C2026   1.268       .  A
O2023     Cd2028   2.478       .  S
C2024      C2037   1.459   1_655  S
C2024      O2033   1.263       .  A
C2024      O2029   1.269       .  A
O2025      C2031   1.269       .  A
O2025     Cd2028   2.494       .  S
C2026      O2034   1.265       .  A
C2027      O2032   1.269       .  A
C2027      O2030   1.264       .  A
Cd2028     O2035   2.443       .  S
Cd2028     O2034   2.443       .  S
Cd2028     O2033   2.397       .  S
Cd2028     O2029   2.488       .  S
Cd2028     O2032   2.478       .  S
Cd2028     O2030   2.436       .  S
C2031      O2035   1.264       .  A
O2036      C2039   1.267       .  A
O2036     Cd2041   2.445       .  S
C2037      O2046   1.263       .  A
C2037      O2042   1.267       .  A
O2038      C2044   1.269       .  A
O2038     Cd2041   2.485       .  S
C2039      C2089   1.451       .  S
C2039      O2047   1.265       .  A
C2040      O2045   1.267       .  A
C2040      O2043   1.265       .  A
Cd2041     O2048   2.437       .  S
Cd2041     O2047   2.401       .  S
Cd2041     O2046   2.401       .  S
Cd2041     O2042   2.491       .  S
Cd2041     O2045   2.479       .  S
Cd2041     O2043   2.445       .  S
C2044      O2048   1.264       .  A
O2049      C2052   1.269       .  A
O2049     Cd2054   2.478       .  S
C2050      C2104   1.473       .  S
C2050      O2059   1.267       .  A
C2050      O2055   1.267       .  A
O2051      C2057   1.270       .  A
O2051     Cd2054   2.512       .  S
C2052      C2065   1.454   1_556  S
C2052      O2060   1.263       .  A
C2053      C2079   1.469       .  S
C2053      O2058   1.269       .  A
C2053      O2056   1.264       .  A
Cd2054     O2061   2.425       .  S
Cd2054     O2060   2.377       .  S
Cd2054     O2059   2.463       .  S
Cd2054     O2055   2.488       .  S
Cd2054     O2058   2.502       .  S
Cd2054     O2056   2.435       .  S
C2057      O2061   1.263       .  A
O2062      C2065   1.267       .  A
O2062     Cd2067   2.485       .  S
C2063      O2072   1.267       .  A
C2063      O2068   1.267       .  A
O2064      C2070   1.267       .  A
O2064     Cd2067   2.491       .  S
C2065      O2073   1.262       .  A
C2066      O2071   1.269       .  A
C2066      O2069   1.264       .  A
Cd2067     O2074   2.442       .  S
Cd2067     O2073   2.387       .  S
Cd2067     O2072   2.419       .  S
Cd2067     O2068   2.463       .  S
Cd2067     O2071   2.501       .  S
Cd2067     O2069   2.458       .  S
C2070      C2092   1.466       .  S
C2070      O2074   1.264       .  A
O2075      C2078   1.268       .  A
O2075     Cd2080   2.488       .  S
C2076      C2091   1.458   1_556  S
C2076      O2085   1.265       .  A
C2076      O2081   1.271       .  A
O2077      C2083   1.268       .  A
O2077     Cd2080   2.486       .  S
C2078      O2086   1.264       .  A
C2079      O2084   1.268       .  A
C2079      O2082   1.266       .  A
Cd2080     O2087   2.443       .  S
Cd2080     O2086   2.428       .  S
Cd2080     O2085   2.382       .  S
Cd2080     O2081   2.488       .  S
Cd2080     O2084   2.494       .  S
Cd2080     O2082   2.440       .  S
C2083      O2087   1.262       .  A
O2088      C2091   1.270       .  A
O2088     Cd2093   2.484       .  S
C2089      O2098   1.264       .  A
C2089      O2094   1.269       .  A
O2090      C2096   1.270       .  A
O2090     Cd2093   2.454       .  S
C2091      O2099   1.265       .  A
C2092      O2097   1.269       .  A
C2092      O2095   1.266       .  A
Cd2093     O2100   2.459       .  S
Cd2093     O2099   2.381       .  S
Cd2093     O2098   2.390       .  S
Cd2093     O2094   2.450       .  S
Cd2093     O2097   2.477       .  S
Cd2093     O2095   2.427       .  S
C2096      O2100   1.262       .  A
O2101      C2104   1.269       .  A
O2101     Cd2106   2.504       .  S
C2102      C2117   1.470   1_565  S
C2102      O2111   1.263       .  A
C2102      O2107   1.272       .  A
O2103      C2109   1.270       .  A
O2103     Cd2106   2.482       .  S
C2104      O2112   1.265       .  A
C2105      C2131   1.472       .  S
C2105      O2110   1.268       .  A
C2105      O2108   1.266       .  A
Cd2106     O2113   2.430       .  S
Cd2106     O2112   2.459       .  S
Cd2106     O2111   2.402       .  S
Cd2106     O2107   2.524       .  S
Cd2106     O2110   2.492       .  S
Cd2106     O2108   2.466       .  S
C2109      O2113   1.264       .  A
O2114      C2117   1.268       .  A
O2114     Cd2119   2.528       .  S
C2115      O2124   1.264       .  A
C2115      O2120   1.267       .  A
O2116      C2122   1.265       .  A
O2116     Cd2119   2.478       .  S
C2117      O2125   1.263       .  A
C2118      C2144   1.465       .  S
C2118      O2123   1.265       .  A
C2118      O2121   1.267       .  A
Cd2119     O2126   2.427       .  S
Cd2119     O2125   2.424       .  S
Cd2119     O2124   2.456       .  S
Cd2119     O2120   2.488       .  S
Cd2119     O2123   2.448       .  S
Cd2119     O2121   2.468       .  S
C2122      O2126   1.264       .  A
O2127      C2130   1.271       .  A
O2127     Cd2132   2.507       .  S
C2128      O2137   1.262       .  A
C2128      O2133   1.268       .  A
O2129      C2135   1.268       .  A
O2129     Cd2132   2.489       .  S
C2130      C2141   1.464   1_565  S
C2130      O2138   1.265       .  A
C2131      O2136   1.268       .  A
C2131      O2134   1.266       .  A
Cd2132     O2139   2.447       .  S
Cd2132     O2138   2.390       .  S
Cd2132     O2137   2.414       .  S
Cd2132     O2133   2.495       .  S
Cd2132     O2136   2.491       .  S
Cd2132     O2134   2.460       .  S
C2135      O2139   1.261       .  A
O2140      C2143   1.267       .  A
O2140     Cd2145   2.523       .  S
C2141      O2150   1.262       .  A
C2141      O2146   1.270       .  A
O2142      C2148   1.267       .  A
O2142     Cd2145   2.498       .  S
C2143      C2245   1.478       .  S
C2143      O2151   1.264       .  A
C2144      O2149   1.265       .  A
C2144      O2147   1.265       .  A
Cd2145     O2152   2.453       .  S
Cd2145     O2151   2.472       .  S
Cd2145     O2150   2.391       .  S
Cd2145     O2146   2.518       .  S
Cd2145     O2149   2.458       .  S
Cd2145     O2147   2.477       .  S
C2148      O2152   1.263       .  A
O2153      C2156   1.268       .  A
O2153     Cd2158   2.478       .  S
C2154      C2167   1.457   1_556  S
C2154      O2163   1.259       .  A
C2154      O2159   1.267       .  A
O2155      C2161   1.264       .  A
O2155     Cd2158   2.507       .  S
C2156      C2219   1.471       .  S
C2156      O2164   1.268       .  A
C2157      C2187   1.470       .  S
C2157      O2162   1.267       .  A
C2157      O2160   1.264       .  A
Cd2158     O2165   2.465       .  S
Cd2158     O2164   2.467       .  S
Cd2158     O2163   2.374       .  S
Cd2158     O2159   2.515       .  S
Cd2158     O2162   2.489       .  S
Cd2158     O2160   2.456       .  S
C2161      O2165   1.264       .  A
O2166      C2169   1.268       .  A
O2166     Cd2171   2.484       .  S
C2167      O2176   1.262       .  A
C2167      O2172   1.270       .  A
O2168      C2174   1.267       .  A
O2168     Cd2171   2.458       .  S
C2169      O2177   1.265       .  A
C2170      O2175   1.268       .  A
C2170      O2173   1.263       .  A
Cd2171     O2178   2.467       .  S
Cd2171     O2177   2.439       .  S
Cd2171     O2176   2.367       .  S
Cd2171     O2172   2.501       .  S
Cd2171     O2175   2.474       .  S
Cd2171     O2173   2.429       .  S
C2174      C2195   1.468       .  S
C2174      O2178   1.267       .  A
O2179      C2182   1.270       .  A
O2179     Cd2184   2.484       .  S
C2180      C2200   1.466   1_556  S
C2180      O2189   1.264       .  A
C2180      O2185   1.272       .  A
O2181      C2187   1.268       .  A
O2181     Cd2184   2.484       .  S
C2182      O2190   1.263       .  A
C2183      O2188   1.271       .  A
C2183      O2186   1.262       .  A
Cd2184     O2191   2.456       .  S
Cd2184     O2190   2.400       .  S
Cd2184     O2189   2.401       .  S
Cd2184     O2185   2.504       .  S
Cd2184     O2188   2.465       .  S
Cd2184     O2186   2.408       .  S
C2187      O2191   1.267       .  A
O2192      C2195   1.265       .  A
O2192     Cd2197   2.466       .  S
C2193      O2202   1.264       .  A
C2193      O2198   1.267       .  A
O2194      C2200   1.268       .  A
O2194     Cd2197   2.514       .  S
C2195      O2203   1.265       .  A
C2196      O2201   1.265       .  A
C2196      O2199   1.263       .  A
Cd2197     O2204   2.417       .  S
Cd2197     O2203   2.478       .  S
Cd2197     O2202   2.426       .  S
Cd2197     O2198   2.526       .  S
Cd2197     O2201   2.480       .  S
Cd2197     O2199   2.445       .  S
C2200      O2204   1.264       .  A
O2205      C2208   1.269       .  A
O2205     Cd2210   2.485       .  S
C2206      O2215   1.265       .  A
C2206      O2211   1.269       .  A
O2207      C2213   1.273       .  A
O2207     Cd2210   2.503       .  S
C2208      C2248   1.474       .  S
C2208      O2216   1.267       .  A
C2209      O2214   1.272       .  A
C2209      O2212   1.264       .  A
Cd2210     O2217   2.381       .  S
Cd2210     O2216   2.464       .  S
Cd2210     O2215   2.470       .  S
Cd2210     O2211   2.447       .  S
Cd2210     O2214   2.497       .  S
Cd2210     O2212   2.393       .  S
C2213      C2221   1.462   1_455  S
C2213      O2217   1.263       .  A
O2218      C2221   1.268       .  A
O2218     Cd2223   2.504       .  S
C2219      O2228   1.265       .  A
C2219      O2224   1.267       .  A
O2220      C2226   1.268       .  A
O2220     Cd2223   2.500       .  S
C2221      O2229   1.264       .  A
C2222      C2239   1.472       .  S
C2222      O2227   1.267       .  A
C2222      O2225   1.265       .  A
Cd2223     O2230   2.444       .  S
Cd2223     O2229   2.405       .  S
Cd2223     O2228   2.461       .  S
Cd2223     O2224   2.485       .  S
Cd2223     O2227   2.481       .  S
Cd2223     O2225   2.473       .  S
C2226      O2230   1.263       .  A
O2231      C2234   1.273       .  A
O2231     Cd2236   2.518       .  S
C2232      O2241   1.265       .  A
C2232      O2237   1.272       .  A
O2233      C2239   1.267       .  A
O2233     Cd2236   2.471       .  S
C2234      C2247   1.465   1_655  S
C2234      O2242   1.262       .  A
C2235      O2240   1.268       .  A
C2235      O2238   1.265       .  A
Cd2236     O2243   2.472       .  S
Cd2236     O2242   2.384       .  S
Cd2236     O2241   2.411       .  S
Cd2236     O2237   2.511       .  S
Cd2236     O2240   2.437       .  S
Cd2236     O2238   2.439       .  S
C2239      O2243   1.268       .  A
O2244      C2247   1.268       .  A
O2244     Cd2249   2.517       .  S
C2245      O2254   1.264       .  A
C2245      O2250   1.266       .  A
O2246      C2252   1.266       .  A
O2246     Cd2249   2.486       .  S
C2247      O2255   1.264       .  A
C2248      O2253   1.264       .  A
C2248      O2251   1.263       .  A
Cd2249     O2256   2.487       .  S
Cd2249     O2255   2.404       .  S
Cd2249     O2254   2.475       .  S
Cd2249     O2250   2.522       .  S
Cd2249     O2253   2.504       .  S
Cd2249     O2251   2.486       .  S
C2252      O2256   1.261       .  A
